OCNT-2314824
     RDKit          3D

 43 46  0  0  0  0  0  0  0  0999 V2000
   -5.5588    4.0983   -0.7081 C   0  0  0  0  0  0  0  0  0  0  0  0
   -5.5889    2.6810   -0.8285 O   0  0  0  0  0  0  0  0  0  0  0  0
   -4.4017    2.0198   -0.6491 C   0  0  0  0  0  0  0  0  0  0  0  0
   -4.4975    0.6272   -0.7622 C   0  0  0  0  0  0  0  0  0  0  0  0
   -3.3776   -0.2035   -0.6063 C   0  0  0  0  0  0  0  0  0  0  0  0
   -2.1327    0.3920   -0.3369 C   0  0  0  0  0  0  0  0  0  0  0  0
   -2.0771    1.7723   -0.2263 C   0  0  0  0  0  0  0  0  0  0  0  0
   -3.1719    2.6251   -0.3735 C   0  0  0  0  0  0  0  0  0  0  0  0
   -0.8096    2.1726    0.0486 O   0  0  0  0  0  0  0  0  0  0  0  0
   -0.0128    1.0556    0.1066 C   0  0  0  0  0  0  0  0  0  0  0  0
    1.3989    1.2803    0.3684 C   0  0  0  0  0  0  0  0  0  0  0  0
    1.8348    2.2832    0.9311 O   0  0  0  0  0  0  0  0  0  0  0  0
    2.2636    0.2900   -0.0724 N   0  0  0  0  0  0  0  0  0  0  0  0
    3.7150    0.3630    0.1468 C   0  0  0  0  0  0  0  0  0  0  0  0
    4.1579    0.1557    1.6123 C   0  0  0  0  0  0  0  0  0  0  0  0
    5.3510   -0.6802    1.0738 C   0  0  0  0  0  0  0  0  0  0  0  0
    6.8592    0.2713    0.7365 Cl  0  0  0  0  0  0  0  0  0  0  0  0
    5.7648   -2.1433    2.0427 Cl  0  0  0  0  0  0  0  0  0  0  0  0
    4.4647   -0.9478   -0.1748 C   0  0  0  0  0  0  0  0  0  0  0  0
   -0.8014   -0.0718   -0.1081 C   0  0  0  0  0  0  0  0  0  0  0  0
   -0.3251   -1.4403   -0.0686 C   0  0  0  0  0  0  0  0  0  0  0  0
   -0.3584   -2.2245   -1.2273 C   0  0  0  0  0  0  0  0  0  0  0  0
    0.1334   -3.5306   -1.2021 C   0  0  0  0  0  0  0  0  0  0  0  0
    0.6547   -4.0580   -0.0211 C   0  0  0  0  0  0  0  0  0  0  0  0
    0.6794   -3.2848    1.1389 C   0  0  0  0  0  0  0  0  0  0  0  0
    0.1871   -1.9791    1.1183 C   0  0  0  0  0  0  0  0  0  0  0  0
   -4.9148    4.5455   -1.4725 H   0  0  0  0  0  0  0  0  0  0  0  0
   -6.5754    4.4689   -0.8710 H   0  0  0  0  0  0  0  0  0  0  0  0
   -5.2505    4.4027    0.2976 H   0  0  0  0  0  0  0  0  0  0  0  0
   -5.4660    0.1764   -0.9721 H   0  0  0  0  0  0  0  0  0  0  0  0
   -3.4792   -1.2815   -0.6894 H   0  0  0  0  0  0  0  0  0  0  0  0
   -3.0359    3.6925   -0.2704 H   0  0  0  0  0  0  0  0  0  0  0  0
    1.8691   -0.4607   -0.6259 H   0  0  0  0  0  0  0  0  0  0  0  0
    4.1565    1.2449   -0.3335 H   0  0  0  0  0  0  0  0  0  0  0  0
    4.4161    1.0640    2.1651 H   0  0  0  0  0  0  0  0  0  0  0  0
    3.4427   -0.4172    2.2172 H   0  0  0  0  0  0  0  0  0  0  0  0
    4.9825   -0.9761   -1.1383 H   0  0  0  0  0  0  0  0  0  0  0  0
    3.8418   -1.8491   -0.0996 H   0  0  0  0  0  0  0  0  0  0  0  0
   -0.7610   -1.8253   -2.1562 H   0  0  0  0  0  0  0  0  0  0  0  0
    0.1068   -4.1393   -2.1030 H   0  0  0  0  0  0  0  0  0  0  0  0
    1.0340   -5.0773   -0.0019 H   0  0  0  0  0  0  0  0  0  0  0  0
    1.0767   -3.7016    2.0617 H   0  0  0  0  0  0  0  0  0  0  0  0
    0.2056   -1.3903    2.0335 H   0  0  0  0  0  0  0  0  0  0  0  0
  1  2  1  0
  2  3  1  0
  3  4  2  0
  4  5  1  0
  5  6  2  0
  6  7  1  0
  7  8  2  0
  7  9  1  0
  9 10  1  0
 10 11  1  0
 11 12  2  0
 11 13  1  0
 13 14  1  0
 14 15  1  0
 15 16  1  0
 16 17  1  0
 16 18  1  0
 16 19  1  0
 10 20  2  0
 20 21  1  0
 21 22  2  0
 22 23  1  0
 23 24  2  0
 24 25  1  0
 25 26  2  0
  8  3  1  0
 19 14  1  0
 26 21  1  0
 20  6  1  0
  1 27  1  0
  1 28  1  0
  1 29  1  0
  4 30  1  0
  5 31  1  0
  8 32  1  0
 13 33  1  0
 14 34  1  0
 15 35  1  0
 15 36  1  0
 19 37  1  0
 19 38  1  0
 22 39  1  0
 23 40  1  0
 24 41  1  0
 25 42  1  0
 26 43  1  0
M  END
$$$$
OCNT-2314827
     RDKit          3D

 48 51  0  0  0  0  0  0  0  0999 V2000
   -2.1639   -3.2466    0.5204 C   0  0  0  0  0  0  0  0  0  0  0  0
   -2.7691   -2.0741   -0.2219 C   0  0  0  0  0  0  0  0  0  0  0  0
   -3.3945   -2.3192   -1.2529 O   0  0  0  0  0  0  0  0  0  0  0  0
   -2.5524   -0.8060    0.3361 N   0  0  0  0  0  0  0  0  0  0  0  0
   -1.7378   -0.6274    1.5438 C   0  0  0  0  0  0  0  0  0  0  0  0
   -1.0977    0.7486    1.6682 C   0  0  0  0  0  0  0  0  0  0  0  0
    0.1097    0.9399    0.7126 C   0  0  0  0  0  0  0  0  0  0  0  0
   -0.0482    1.2333   -0.4717 O   0  0  0  0  0  0  0  0  0  0  0  0
    1.3906    0.8430    1.2885 N   0  0  0  0  0  0  0  0  0  0  0  0
    1.7153   -0.2892    2.1434 C   0  0  0  0  0  0  0  0  0  0  0  0
    2.0515   -1.4975    1.2712 C   0  0  0  0  0  0  0  0  0  0  0  0
    2.9197   -1.1587    0.0749 C   0  0  0  0  0  0  0  0  0  0  0  0
    3.4420   -2.2416   -0.6554 C   0  0  0  0  0  0  0  0  0  0  0  0
    4.2412   -2.0171   -1.7659 C   0  0  0  0  0  0  0  0  0  0  0  0
    4.8808   -3.3490   -2.6453 Cl  0  0  0  0  0  0  0  0  0  0  0  0
    4.5437   -0.7206   -2.1513 C   0  0  0  0  0  0  0  0  0  0  0  0
    4.0295    0.3726   -1.4368 C   0  0  0  0  0  0  0  0  0  0  0  0
    4.6026    1.9095   -1.9787 Cl  0  0  0  0  0  0  0  0  0  0  0  0
    3.1678    0.1869   -0.3334 C   0  0  0  0  0  0  0  0  0  0  0  0
    2.5700    1.3182    0.5185 C   0  0  0  0  0  0  0  0  0  0  0  0
    2.3090    2.7031   -0.0941 C   0  0  0  0  0  0  0  0  0  0  0  0
   -2.0706    1.7822    1.5689 O   0  0  0  0  0  0  0  0  0  0  0  0
   -2.9561    1.6189    0.5328 C   0  0  0  0  0  0  0  0  0  0  0  0
   -3.6230    2.7948    0.1674 C   0  0  0  0  0  0  0  0  0  0  0  0
   -4.5390    2.7855   -0.8771 C   0  0  0  0  0  0  0  0  0  0  0  0
   -4.7896    1.5971   -1.5504 C   0  0  0  0  0  0  0  0  0  0  0  0
   -4.1341    0.4166   -1.1739 C   0  0  0  0  0  0  0  0  0  0  0  0
   -3.2101    0.3943   -0.1193 C   0  0  0  0  0  0  0  0  0  0  0  0
   -2.4185   -3.2125    1.5827 H   0  0  0  0  0  0  0  0  0  0  0  0
   -2.5746   -4.1781    0.1171 H   0  0  0  0  0  0  0  0  0  0  0  0
   -1.0806   -3.2622    0.3770 H   0  0  0  0  0  0  0  0  0  0  0  0
   -2.4184   -0.7943    2.3890 H   0  0  0  0  0  0  0  0  0  0  0  0
   -0.9651   -1.3951    1.5928 H   0  0  0  0  0  0  0  0  0  0  0  0
   -0.7128    0.8473    2.6894 H   0  0  0  0  0  0  0  0  0  0  0  0
    0.8960   -0.5387    2.8211 H   0  0  0  0  0  0  0  0  0  0  0  0
    2.5726   -0.0104    2.7681 H   0  0  0  0  0  0  0  0  0  0  0  0
    1.1258   -1.9375    0.8826 H   0  0  0  0  0  0  0  0  0  0  0  0
    2.5441   -2.2560    1.8910 H   0  0  0  0  0  0  0  0  0  0  0  0
    3.2205   -3.2631   -0.3524 H   0  0  0  0  0  0  0  0  0  0  0  0
    5.1954   -0.5547   -3.0064 H   0  0  0  0  0  0  0  0  0  0  0  0
    3.3332    1.5073    1.2890 H   0  0  0  0  0  0  0  0  0  0  0  0
    3.2343    3.2813   -0.1726 H   0  0  0  0  0  0  0  0  0  0  0  0
    1.6460    3.2993    0.5442 H   0  0  0  0  0  0  0  0  0  0  0  0
    1.8590    2.6421   -1.0897 H   0  0  0  0  0  0  0  0  0  0  0  0
   -3.4105    3.7225    0.6917 H   0  0  0  0  0  0  0  0  0  0  0  0
   -5.0469    3.7000   -1.1696 H   0  0  0  0  0  0  0  0  0  0  0  0
   -5.4984    1.5769   -2.3747 H   0  0  0  0  0  0  0  0  0  0  0  0
   -4.3883   -0.4713   -1.7411 H   0  0  0  0  0  0  0  0  0  0  0  0
  1  2  1  0
  2  3  2  0
  2  4  1  0
  4  5  1  0
  5  6  1  0
  6  7  1  0
  7  8  2  0
  7  9  1  0
  9 10  1  0
 10 11  1  0
 11 12  1  0
 12 13  2  0
 13 14  1  0
 14 15  1  0
 14 16  2  0
 16 17  1  0
 17 18  1  0
 17 19  2  0
 19 20  1  0
 20 21  1  0
  6 22  1  0
 22 23  1  0
 23 24  2  0
 24 25  1  0
 25 26  2  0
 26 27  1  0
 27 28  2  0
 28  4  1  0
 20  9  1  0
 28 23  1  0
 19 12  1  0
  1 29  1  0
  1 30  1  0
  1 31  1  0
  5 32  1  0
  5 33  1  0
  6 34  1  0
 10 35  1  0
 10 36  1  0
 11 37  1  0
 11 38  1  0
 13 39  1  0
 16 40  1  0
 20 41  1  0
 21 42  1  0
 21 43  1  0
 21 44  1  0
 24 45  1  0
 25 46  1  0
 26 47  1  0
 27 48  1  0
M  END
$$$$
OCNT-2314844
     RDKit          3D

 35 37  0  0  0  0  0  0  0  0999 V2000
   -0.9853   -1.3831   -1.5702 C   0  0  0  0  0  0  0  0  0  0  0  0
   -1.4073   -0.9061   -0.2978 O   0  0  0  0  0  0  0  0  0  0  0  0
   -2.2072    0.2057   -0.2902 C   0  0  0  0  0  0  0  0  0  0  0  0
   -2.9677    0.6325   -1.3882 C   0  0  0  0  0  0  0  0  0  0  0  0
   -3.7840    1.7667   -1.2958 C   0  0  0  0  0  0  0  0  0  0  0  0
   -3.8538    2.4819   -0.1039 C   0  0  0  0  0  0  0  0  0  0  0  0
   -3.1066    2.0564    0.9878 C   0  0  0  0  0  0  0  0  0  0  0  0
   -3.1743    2.7501    2.1353 F   0  0  0  0  0  0  0  0  0  0  0  0
   -2.2928    0.9193    0.9162 C   0  0  0  0  0  0  0  0  0  0  0  0
   -1.4906    0.5864    2.0703 N   0  0  0  0  0  0  0  0  0  0  0  0
    0.1403    1.0533    1.9633 S   0  0  0  0  0  0  0  0  0  0  0  0
    0.2933    2.0904    0.9659 O   0  0  0  0  0  0  0  0  0  0  0  0
    0.5907    1.2403    3.3275 O   0  0  0  0  0  0  0  0  0  0  0  0
    1.0749   -0.2947    1.4196 C   0  0  0  0  0  0  0  0  0  0  0  0
    0.9657   -1.5767    1.9267 C   0  0  0  0  0  0  0  0  0  0  0  0
    1.8599   -2.3669    1.2612 N   0  0  0  0  0  0  0  0  0  0  0  0
    2.5519   -1.6225    0.3307 C   0  0  0  0  0  0  0  0  0  0  0  0
    3.5513   -2.0210   -0.5678 C   0  0  0  0  0  0  0  0  0  0  0  0
    4.0934   -1.0438   -1.4063 C   0  0  0  0  0  0  0  0  0  0  0  0
    5.3213   -1.4885   -2.5303 Cl  0  0  0  0  0  0  0  0  0  0  0  0
    3.6608    0.2766   -1.3522 C   0  0  0  0  0  0  0  0  0  0  0  0
    2.6597    0.6570   -0.4487 C   0  0  0  0  0  0  0  0  0  0  0  0
    2.0847   -0.3047    0.4122 C   0  0  0  0  0  0  0  0  0  0  0  0
   -1.8163   -1.8583   -2.1016 H   0  0  0  0  0  0  0  0  0  0  0  0
   -0.5361   -0.5832   -2.1694 H   0  0  0  0  0  0  0  0  0  0  0  0
   -0.2197   -2.1480   -1.4046 H   0  0  0  0  0  0  0  0  0  0  0  0
   -2.9546    0.0944   -2.3315 H   0  0  0  0  0  0  0  0  0  0  0  0
   -4.3654    2.0887   -2.1575 H   0  0  0  0  0  0  0  0  0  0  0  0
   -4.4782    3.3656   -0.0192 H   0  0  0  0  0  0  0  0  0  0  0  0
   -1.8602    0.9962    2.9311 H   0  0  0  0  0  0  0  0  0  0  0  0
    0.3244   -1.9803    2.6997 H   0  0  0  0  0  0  0  0  0  0  0  0
    2.0019   -3.3544    1.4279 H   0  0  0  0  0  0  0  0  0  0  0  0
    3.8941   -3.0501   -0.6110 H   0  0  0  0  0  0  0  0  0  0  0  0
    4.0959    1.0261   -2.0092 H   0  0  0  0  0  0  0  0  0  0  0  0
    2.3356    1.6951   -0.4210 H   0  0  0  0  0  0  0  0  0  0  0  0
  1  2  1  0
  2  3  1  0
  3  4  2  0
  4  5  1  0
  5  6  2  0
  6  7  1  0
  7  8  1  0
  7  9  2  0
  9 10  1  0
 10 11  1  0
 11 12  2  0
 11 13  2  0
 11 14  1  0
 14 15  2  0
 15 16  1  0
 16 17  1  0
 17 18  2  0
 18 19  1  0
 19 20  1  0
 19 21  2  0
 21 22  1  0
 22 23  2  0
  9  3  1  0
 23 14  1  0
 23 17  1  0
  1 24  1  0
  1 25  1  0
  1 26  1  0
  4 27  1  0
  5 28  1  0
  6 29  1  0
 10 30  1  0
 15 31  1  0
 16 32  1  0
 18 33  1  0
 21 34  1  0
 22 35  1  0
M  END
$$$$
OCNT-2314853
     RDKit          3D

 49 51  0  0  0  0  0  0  0  0999 V2000
   -5.2677    2.5401    2.2757 C   0  0  0  0  0  0  0  0  0  0  0  0
   -4.0153    1.8968    2.0777 O   0  0  0  0  0  0  0  0  0  0  0  0
   -3.8547    1.2036    0.9094 C   0  0  0  0  0  0  0  0  0  0  0  0
   -4.8057    1.0633   -0.0986 C   0  0  0  0  0  0  0  0  0  0  0  0
   -4.5054    0.3215   -1.2427 C   0  0  0  0  0  0  0  0  0  0  0  0
   -3.2548   -0.2826   -1.3864 C   0  0  0  0  0  0  0  0  0  0  0  0
   -2.2799   -0.1546   -0.3871 C   0  0  0  0  0  0  0  0  0  0  0  0
   -0.8959   -0.7943   -0.4953 C   0  0  0  0  0  0  0  0  0  0  0  0
   -0.2340   -0.5690   -1.8976 C   0  0  0  0  0  0  0  0  0  0  0  0
    1.1061   -1.1584   -1.9724 N   0  0  0  0  0  0  0  0  0  0  0  0
    2.0883   -0.4578   -1.2834 C   0  0  0  0  0  0  0  0  0  0  0  0
    2.0632    0.8786   -1.2448 N   0  0  0  0  0  0  0  0  0  0  0  0
    3.0424    1.5054   -0.5581 C   0  0  0  0  0  0  0  0  0  0  0  0
    2.9677    3.0048   -0.5541 C   0  0  0  0  0  0  0  0  0  0  0  0
    4.0586    0.8128    0.1075 C   0  0  0  0  0  0  0  0  0  0  0  0
    5.1125    1.4066    0.8468 C   0  0  0  0  0  0  0  0  0  0  0  0
    6.0738    0.6164    1.4729 C   0  0  0  0  0  0  0  0  0  0  0  0
    5.9932   -0.7654    1.3679 C   0  0  0  0  0  0  0  0  0  0  0  0
    4.9522   -1.3457    0.6376 C   0  0  0  0  0  0  0  0  0  0  0  0
    3.9809   -0.5802    0.0035 C   0  0  0  0  0  0  0  0  0  0  0  0
    3.0141   -1.2052   -0.6768 N   0  0  0  0  0  0  0  0  0  0  0  0
   -0.8167   -2.2233   -0.0696 N   0  0  0  0  0  0  0  0  0  0  0  0
   -1.6743   -3.1389   -0.8144 C   0  0  0  0  0  0  0  0  0  0  0  0
   -1.0159   -2.3871    1.3693 C   0  0  0  0  0  0  0  0  0  0  0  0
   -2.6037    0.5962    0.7585 C   0  0  0  0  0  0  0  0  0  0  0  0
   -5.4473    3.3000    1.5080 H   0  0  0  0  0  0  0  0  0  0  0  0
   -6.0845    1.8116    2.3107 H   0  0  0  0  0  0  0  0  0  0  0  0
   -5.2333    3.0477    3.2445 H   0  0  0  0  0  0  0  0  0  0  0  0
   -5.7888    1.5154   -0.0268 H   0  0  0  0  0  0  0  0  0  0  0  0
   -5.2512    0.2119   -2.0264 H   0  0  0  0  0  0  0  0  0  0  0  0
   -3.0608   -0.8604   -2.2865 H   0  0  0  0  0  0  0  0  0  0  0  0
   -0.2468   -0.2371    0.1961 H   0  0  0  0  0  0  0  0  0  0  0  0
   -0.8305   -1.0495   -2.6810 H   0  0  0  0  0  0  0  0  0  0  0  0
   -0.2253    0.4980   -2.1561 H   0  0  0  0  0  0  0  0  0  0  0  0
    1.1272   -2.0921   -1.5634 H   0  0  0  0  0  0  0  0  0  0  0  0
    2.8604    3.3795    0.4686 H   0  0  0  0  0  0  0  0  0  0  0  0
    3.8656    3.4337   -1.0097 H   0  0  0  0  0  0  0  0  0  0  0  0
    2.1030    3.3529   -1.1292 H   0  0  0  0  0  0  0  0  0  0  0  0
    5.1883    2.4873    0.9368 H   0  0  0  0  0  0  0  0  0  0  0  0
    6.8800    1.0772    2.0379 H   0  0  0  0  0  0  0  0  0  0  0  0
    6.7352   -1.3972    1.8493 H   0  0  0  0  0  0  0  0  0  0  0  0
    4.8970   -2.4296    0.5592 H   0  0  0  0  0  0  0  0  0  0  0  0
   -1.5078   -3.0636   -1.8931 H   0  0  0  0  0  0  0  0  0  0  0  0
   -2.7388   -2.9820   -0.6117 H   0  0  0  0  0  0  0  0  0  0  0  0
   -1.4378   -4.1753   -0.5460 H   0  0  0  0  0  0  0  0  0  0  0  0
   -2.0420   -2.1646    1.6809 H   0  0  0  0  0  0  0  0  0  0  0  0
   -0.3317   -1.7453    1.9354 H   0  0  0  0  0  0  0  0  0  0  0  0
   -0.7895   -3.4167    1.6690 H   0  0  0  0  0  0  0  0  0  0  0  0
   -1.8701    0.7146    1.5543 H   0  0  0  0  0  0  0  0  0  0  0  0
  1  2  1  0
  2  3  1  0
  3  4  1  0
  4  5  2  0
  5  6  1  0
  6  7  2  0
  7  8  1  0
  8  9  1  0
  9 10  1  0
 10 11  1  0
 11 12  2  0
 12 13  1  0
 13 14  1  0
 13 15  2  0
 15 16  1  0
 16 17  2  0
 17 18  1  0
 18 19  2  0
 19 20  1  0
 20 21  2  0
  8 22  1  0
 22 23  1  0
 22 24  1  0
  7 25  1  0
 25  3  2  0
 21 11  1  0
 20 15  1  0
  1 26  1  0
  1 27  1  0
  1 28  1  0
  4 29  1  0
  5 30  1  0
  6 31  1  0
  8 32  1  0
  9 33  1  0
  9 34  1  0
 10 35  1  0
 14 36  1  0
 14 37  1  0
 14 38  1  0
 16 39  1  0
 17 40  1  0
 18 41  1  0
 19 42  1  0
 23 43  1  0
 23 44  1  0
 23 45  1  0
 24 46  1  0
 24 47  1  0
 24 48  1  0
 25 49  1  0
M  END
$$$$
OCNT-2314864
     RDKit          3D

 45 49  0  0  0  0  0  0  0  0999 V2000
    2.5562    1.5381   -2.1510 O   0  0  0  0  0  0  0  0  0  0  0  0
    2.8693    1.2633   -0.9975 C   0  0  0  0  0  0  0  0  0  0  0  0
    2.2819    1.8678    0.0941 N   0  0  0  0  0  0  0  0  0  0  0  0
    1.1804    2.7908   -0.0718 C   0  0  0  0  0  0  0  0  0  0  0  0
   -0.1403    2.0947    0.1378 C   0  0  0  0  0  0  0  0  0  0  0  0
   -0.7114    1.3375   -0.8923 C   0  0  0  0  0  0  0  0  0  0  0  0
   -1.9259    0.6702   -0.7028 C   0  0  0  0  0  0  0  0  0  0  0  0
   -2.5938    0.7518    0.5233 C   0  0  0  0  0  0  0  0  0  0  0  0
   -3.8285    0.0700    0.7335 N   0  0  0  0  0  0  0  0  0  0  0  0
   -4.2932   -0.3666    1.9590 C   0  0  0  0  0  0  0  0  0  0  0  0
   -5.4163   -1.0394    1.8764 N   0  0  0  0  0  0  0  0  0  0  0  0
   -5.7402   -1.0143    0.5488 C   0  0  0  0  0  0  0  0  0  0  0  0
   -6.8640   -1.5680   -0.0855 C   0  0  0  0  0  0  0  0  0  0  0  0
   -7.0337   -1.3768   -1.4592 C   0  0  0  0  0  0  0  0  0  0  0  0
   -6.1092   -0.6321   -2.1868 C   0  0  0  0  0  0  0  0  0  0  0  0
   -4.9802   -0.0757   -1.5722 C   0  0  0  0  0  0  0  0  0  0  0  0
   -4.7926   -0.3087   -0.1977 C   0  0  0  0  0  0  0  0  0  0  0  0
   -2.0120    1.4886    1.5663 C   0  0  0  0  0  0  0  0  0  0  0  0
   -0.7974    2.1559    1.3719 C   0  0  0  0  0  0  0  0  0  0  0  0
    3.8620    0.2613   -0.6715 C   0  0  0  0  0  0  0  0  0  0  0  0
    4.3456   -0.7460   -1.4916 C   0  0  0  0  0  0  0  0  0  0  0  0
    5.3147   -1.4948   -0.7718 C   0  0  0  0  0  0  0  0  0  0  0  0
    6.1133   -2.6065   -1.0646 C   0  0  0  0  0  0  0  0  0  0  0  0
    6.9728   -3.0989   -0.1377 N   0  0  0  0  0  0  0  0  0  0  0  0
    7.0475   -2.4949    1.0687 C   0  0  0  0  0  0  0  0  0  0  0  0
    6.3031   -1.3895    1.4541 C   0  0  0  0  0  0  0  0  0  0  0  0
    5.4245   -0.9072    0.4865 C   0  0  0  0  0  0  0  0  0  0  0  0
    4.5529    0.1558    0.5159 N   0  0  0  0  0  0  0  0  0  0  0  0
    2.3346    1.3949    0.9822 H   0  0  0  0  0  0  0  0  0  0  0  0
    1.2084    3.2664   -1.0586 H   0  0  0  0  0  0  0  0  0  0  0  0
    1.3124    3.5843    0.6721 H   0  0  0  0  0  0  0  0  0  0  0  0
   -0.2006    1.2497   -1.8514 H   0  0  0  0  0  0  0  0  0  0  0  0
   -2.2871    0.0482   -1.5158 H   0  0  0  0  0  0  0  0  0  0  0  0
   -3.7494   -0.2099    2.8801 H   0  0  0  0  0  0  0  0  0  0  0  0
   -7.5924   -2.1230    0.4958 H   0  0  0  0  0  0  0  0  0  0  0  0
   -7.9043   -1.7975   -1.9563 H   0  0  0  0  0  0  0  0  0  0  0  0
   -6.2712   -0.4702   -3.2508 H   0  0  0  0  0  0  0  0  0  0  0  0
   -4.3008    0.5348   -2.1564 H   0  0  0  0  0  0  0  0  0  0  0  0
   -2.4968    1.5964    2.5334 H   0  0  0  0  0  0  0  0  0  0  0  0
   -0.3752    2.7324    2.1926 H   0  0  0  0  0  0  0  0  0  0  0  0
    4.0196   -0.9222   -2.5099 H   0  0  0  0  0  0  0  0  0  0  0  0
    6.0880   -3.1175   -2.0201 H   0  0  0  0  0  0  0  0  0  0  0  0
    7.7599   -2.9441    1.7564 H   0  0  0  0  0  0  0  0  0  0  0  0
    6.4058   -0.9437    2.4344 H   0  0  0  0  0  0  0  0  0  0  0  0
    4.4634    0.7947    1.2926 H   0  0  0  0  0  0  0  0  0  0  0  0
  1  2  2  0
  2  3  1  0
  3  4  1  0
  4  5  1  0
  5  6  1  0
  6  7  2  0
  7  8  1  0
  8  9  1  0
  9 10  1  0
 10 11  2  0
 11 12  1  0
 12 13  2  0
 13 14  1  0
 14 15  2  0
 15 16  1  0
 16 17  2  0
  8 18  2  0
 18 19  1  0
  2 20  1  0
 20 21  2  0
 21 22  1  0
 22 23  2  0
 23 24  1  0
 24 25  2  0
 25 26  1  0
 26 27  2  0
 27 28  1  0
 19  5  2  0
 28 20  1  0
 17  9  1  0
 27 22  1  0
 17 12  1  0
  3 29  1  0
  4 30  1  0
  4 31  1  0
  6 32  1  0
  7 33  1  0
 10 34  1  0
 13 35  1  0
 14 36  1  0
 15 37  1  0
 16 38  1  0
 18 39  1  0
 19 40  1  0
 21 41  1  0
 23 42  1  0
 25 43  1  0
 26 44  1  0
 28 45  1  0
M  END
$$$$
OCNT-2314865
     RDKit          3D

 49 50  0  0  0  0  0  0  0  0999 V2000
    7.8031    0.6994   -1.0519 C   0  0  0  0  0  0  0  0  0  0  0  0
    6.3066    0.8154   -1.0744 C   0  0  0  0  0  0  0  0  0  0  0  0
    5.6890    2.0626   -0.9039 C   0  0  0  0  0  0  0  0  0  0  0  0
    4.2985    2.1784   -0.9598 C   0  0  0  0  0  0  0  0  0  0  0  0
    3.5248    1.0404   -1.1943 C   0  0  0  0  0  0  0  0  0  0  0  0
    1.7588    1.1635   -1.2774 S   0  0  0  0  0  0  0  0  0  0  0  0
    1.3208    0.4355   -2.4450 O   0  0  0  0  0  0  0  0  0  0  0  0
    1.3767    2.5370   -1.0306 O   0  0  0  0  0  0  0  0  0  0  0  0
    1.3098    0.3100    0.1236 N   0  0  0  0  0  0  0  0  0  0  0  0
   -0.0905   -0.2069    0.0904 C   0  0  0  0  0  0  0  0  0  0  0  0
   -0.3641   -1.0002    1.3862 C   0  0  0  0  0  0  0  0  0  0  0  0
   -1.7843   -1.2492    1.7229 N   0  0  0  0  0  0  0  0  0  0  0  0
   -1.8615   -1.8127    3.0768 C   0  0  0  0  0  0  0  0  0  0  0  0
   -2.4482   -2.1736    0.7756 C   0  0  0  0  0  0  0  0  0  0  0  0
   -2.9601   -1.4531   -0.4343 C   0  0  0  0  0  0  0  0  0  0  0  0
   -2.5801   -1.8597   -1.6537 N   0  0  0  0  0  0  0  0  0  0  0  0
   -3.1955   -1.0067   -2.5463 O   0  0  0  0  0  0  0  0  0  0  0  0
   -3.9537   -0.1161   -1.8682 C   0  0  0  0  0  0  0  0  0  0  0  0
   -3.8660   -0.3522   -0.5150 C   0  0  0  0  0  0  0  0  0  0  0  0
   -4.5429    0.3821    0.6025 C   0  0  0  0  0  0  0  0  0  0  0  0
   -6.0524    0.5058    0.3772 C   0  0  0  0  0  0  0  0  0  0  0  0
   -3.9235    1.7643    0.8205 C   0  0  0  0  0  0  0  0  0  0  0  0
    4.1263   -0.2059   -1.3869 C   0  0  0  0  0  0  0  0  0  0  0  0
    5.5164   -0.3145   -1.3289 C   0  0  0  0  0  0  0  0  0  0  0  0
    8.2499    1.4890   -0.4382 H   0  0  0  0  0  0  0  0  0  0  0  0
    8.1991    0.7772   -2.0691 H   0  0  0  0  0  0  0  0  0  0  0  0
    8.1120   -0.2593   -0.6225 H   0  0  0  0  0  0  0  0  0  0  0  0
    6.2899    2.9532   -0.7306 H   0  0  0  0  0  0  0  0  0  0  0  0
    3.8343    3.1530   -0.8285 H   0  0  0  0  0  0  0  0  0  0  0  0
    1.4160    0.9628    0.9043 H   0  0  0  0  0  0  0  0  0  0  0  0
   -0.2110   -0.8620   -0.7756 H   0  0  0  0  0  0  0  0  0  0  0  0
   -0.7745    0.6453    0.0183 H   0  0  0  0  0  0  0  0  0  0  0  0
    0.1993   -1.9429    1.3552 H   0  0  0  0  0  0  0  0  0  0  0  0
    0.0713   -0.4181    2.2109 H   0  0  0  0  0  0  0  0  0  0  0  0
   -2.9057   -1.9457    3.3810 H   0  0  0  0  0  0  0  0  0  0  0  0
   -1.4146   -1.1291    3.8078 H   0  0  0  0  0  0  0  0  0  0  0  0
   -1.3519   -2.7799    3.1506 H   0  0  0  0  0  0  0  0  0  0  0  0
   -3.3309   -2.6277    1.2480 H   0  0  0  0  0  0  0  0  0  0  0  0
   -1.7853   -3.0047    0.5017 H   0  0  0  0  0  0  0  0  0  0  0  0
   -4.4834    0.6011   -2.4774 H   0  0  0  0  0  0  0  0  0  0  0  0
   -4.4090   -0.1899    1.5289 H   0  0  0  0  0  0  0  0  0  0  0  0
   -6.2810    1.1228   -0.4984 H   0  0  0  0  0  0  0  0  0  0  0  0
   -6.5365    0.9656    1.2454 H   0  0  0  0  0  0  0  0  0  0  0  0
   -6.5077   -0.4777    0.2202 H   0  0  0  0  0  0  0  0  0  0  0  0
   -4.0525    2.4057   -0.0588 H   0  0  0  0  0  0  0  0  0  0  0  0
   -4.3871    2.2677    1.6760 H   0  0  0  0  0  0  0  0  0  0  0  0
   -2.8493    1.6880    1.0199 H   0  0  0  0  0  0  0  0  0  0  0  0
    3.5187   -1.0863   -1.5869 H   0  0  0  0  0  0  0  0  0  0  0  0
    5.9818   -1.2853   -1.4875 H   0  0  0  0  0  0  0  0  0  0  0  0
  1  2  1  0
  2  3  1  0
  3  4  2  0
  4  5  1  0
  5  6  1  0
  6  7  2  0
  6  8  2  0
  6  9  1  0
  9 10  1  0
 10 11  1  0
 11 12  1  0
 12 13  1  0
 12 14  1  0
 14 15  1  0
 15 16  2  0
 16 17  1  0
 17 18  1  0
 18 19  2  0
 19 20  1  0
 20 21  1  0
 20 22  1  0
  5 23  2  0
 23 24  1  0
 24  2  2  0
 19 15  1  0
  1 25  1  0
  1 26  1  0
  1 27  1  0
  3 28  1  0
  4 29  1  0
  9 30  1  0
 10 31  1  0
 10 32  1  0
 11 33  1  0
 11 34  1  0
 13 35  1  0
 13 36  1  0
 13 37  1  0
 14 38  1  0
 14 39  1  0
 18 40  1  0
 20 41  1  0
 21 42  1  0
 21 43  1  0
 21 44  1  0
 22 45  1  0
 22 46  1  0
 22 47  1  0
 23 48  1  0
 24 49  1  0
M  END
$$$$
OCNT-2314866
     RDKit          3D

 36 38  0  0  0  0  0  0  0  0999 V2000
   -2.4910   -1.7639   -1.3852 O   0  0  0  0  0  0  0  0  0  0  0  0
   -1.9038   -0.9275   -0.7049 C   0  0  0  0  0  0  0  0  0  0  0  0
   -2.5175    0.0322    0.0671 N   0  0  0  0  0  0  0  0  0  0  0  0
   -3.9027    0.1917    0.2956 C   0  0  0  0  0  0  0  0  0  0  0  0
   -4.3379    1.3057    1.0021 C   0  0  0  0  0  0  0  0  0  0  0  0
   -5.6367    1.5508    1.2856 N   0  0  0  0  0  0  0  0  0  0  0  0
   -6.5782    0.6728    0.8658 N   0  0  0  0  0  0  0  0  0  0  0  0
   -6.1956   -0.4236    0.1787 C   0  0  0  0  0  0  0  0  0  0  0  0
   -4.8754   -0.7029   -0.1238 C   0  0  0  0  0  0  0  0  0  0  0  0
   -0.5247   -0.8873   -0.6640 N   0  0  0  0  0  0  0  0  0  0  0  0
    0.2603   -1.8027   -1.4763 C   0  0  0  0  0  0  0  0  0  0  0  0
    1.6920   -1.3006   -1.3537 C   0  0  0  0  0  0  0  0  0  0  0  0
    1.7235   -0.7286    0.0686 C   0  0  0  0  0  0  0  0  0  0  0  0
    2.8893    0.1799    0.3612 C   0  0  0  0  0  0  0  0  0  0  0  0
    3.0878    1.3870   -0.3197 C   0  0  0  0  0  0  0  0  0  0  0  0
    2.2215    1.7747   -1.2664 F   0  0  0  0  0  0  0  0  0  0  0  0
    4.1724    2.2145   -0.0398 C   0  0  0  0  0  0  0  0  0  0  0  0
    5.0908    1.8428    0.9382 C   0  0  0  0  0  0  0  0  0  0  0  0
    4.9174    0.6446    1.6284 C   0  0  0  0  0  0  0  0  0  0  0  0
    3.8262   -0.1816    1.3423 C   0  0  0  0  0  0  0  0  0  0  0  0
    0.3357   -0.0860    0.2005 C   0  0  0  0  0  0  0  0  0  0  0  0
   -1.9191    0.7685    0.4051 H   0  0  0  0  0  0  0  0  0  0  0  0
   -3.6531    2.0584    1.3748 H   0  0  0  0  0  0  0  0  0  0  0  0
   -6.9992   -1.0851   -0.1254 H   0  0  0  0  0  0  0  0  0  0  0  0
   -4.6462   -1.6080   -0.6715 H   0  0  0  0  0  0  0  0  0  0  0  0
   -0.0976   -1.8145   -2.5104 H   0  0  0  0  0  0  0  0  0  0  0  0
    0.1527   -2.8074   -1.0519 H   0  0  0  0  0  0  0  0  0  0  0  0
    2.4276   -2.0959   -1.5092 H   0  0  0  0  0  0  0  0  0  0  0  0
    1.8762   -0.5239   -2.1053 H   0  0  0  0  0  0  0  0  0  0  0  0
    1.7542   -1.5829    0.7612 H   0  0  0  0  0  0  0  0  0  0  0  0
    4.2938    3.1430   -0.5891 H   0  0  0  0  0  0  0  0  0  0  0  0
    5.9407    2.4831    1.1605 H   0  0  0  0  0  0  0  0  0  0  0  0
    5.6349    0.3497    2.3910 H   0  0  0  0  0  0  0  0  0  0  0  0
    3.7179   -1.1136    1.8941 H   0  0  0  0  0  0  0  0  0  0  0  0
    0.2919    0.9472   -0.1576 H   0  0  0  0  0  0  0  0  0  0  0  0
   -0.0285   -0.1107    1.2330 H   0  0  0  0  0  0  0  0  0  0  0  0
  1  2  2  0
  2  3  1  0
  3  4  1  0
  4  5  2  0
  5  6  1  0
  6  7  2  0
  7  8  1  0
  8  9  2  0
  2 10  1  0
 10 11  1  0
 11 12  1  0
 12 13  1  0
 13 14  1  0
 14 15  1  0
 15 16  1  0
 15 17  2  0
 17 18  1  0
 18 19  2  0
 19 20  1  0
 13 21  1  0
  9  4  1  0
 21 10  1  0
 20 14  2  0
  3 22  1  0
  5 23  1  0
  8 24  1  0
  9 25  1  0
 11 26  1  0
 11 27  1  0
 12 28  1  0
 12 29  1  0
 13 30  1  0
 17 31  1  0
 18 32  1  0
 19 33  1  0
 20 34  1  0
 21 35  1  0
 21 36  1  0
M  END
$$$$
OCNT-2314885
     RDKit          3D

 49 51  0  0  0  0  0  0  0  0999 V2000
   -4.3017    1.6260   -1.5608 C   0  0  0  0  0  0  0  0  0  0  0  0
   -4.7829    0.6183   -0.5009 C   0  0  0  0  0  0  0  0  0  0  0  0
   -6.2936    0.7878   -0.3087 C   0  0  0  0  0  0  0  0  0  0  0  0
   -4.4504   -0.7920   -0.9930 C   0  0  0  0  0  0  0  0  0  0  0  0
   -4.0859    0.9687    0.7521 N   0  0  0  0  0  0  0  0  0  0  0  0
   -3.9430   -0.0190    2.0947 S   0  0  0  0  0  0  0  0  0  0  0  0
   -3.5590    0.8441    3.1897 O   0  0  0  0  0  0  0  0  0  0  0  0
   -5.1084   -0.8702    2.1766 O   0  0  0  0  0  0  0  0  0  0  0  0
   -2.5299   -1.0220    1.7197 C   0  0  0  0  0  0  0  0  0  0  0  0
   -2.6099   -2.4096    1.8474 C   0  0  0  0  0  0  0  0  0  0  0  0
   -1.4928   -3.1832    1.5474 C   0  0  0  0  0  0  0  0  0  0  0  0
   -0.3118   -2.5683    1.1200 C   0  0  0  0  0  0  0  0  0  0  0  0
   -0.2317   -1.1743    0.9841 C   0  0  0  0  0  0  0  0  0  0  0  0
    0.9947   -0.6420    0.5394 N   0  0  0  0  0  0  0  0  0  0  0  0
    1.2926    0.6788    0.2657 C   0  0  0  0  0  0  0  0  0  0  0  0
    0.5288    1.6336    0.3366 O   0  0  0  0  0  0  0  0  0  0  0  0
    2.7216    0.8574   -0.1705 C   0  0  0  0  0  0  0  0  0  0  0  0
    3.1318    2.0983   -0.4684 C   0  0  0  0  0  0  0  0  0  0  0  0
    4.5207    2.3083   -0.8999 C   0  0  0  0  0  0  0  0  0  0  0  0
    4.9359    3.4224   -1.1869 O   0  0  0  0  0  0  0  0  0  0  0  0
    5.3763    1.1151   -0.9684 C   0  0  0  0  0  0  0  0  0  0  0  0
    6.7128    1.2212   -1.3650 C   0  0  0  0  0  0  0  0  0  0  0  0
    7.4888    0.0690   -1.4173 C   0  0  0  0  0  0  0  0  0  0  0  0
    8.7970    0.1104   -1.7963 O   0  0  0  0  0  0  0  0  0  0  0  0
    6.9523   -1.1720   -1.0826 C   0  0  0  0  0  0  0  0  0  0  0  0
    5.6166   -1.2700   -0.6875 C   0  0  0  0  0  0  0  0  0  0  0  0
    4.8276   -0.1215   -0.6310 C   0  0  0  0  0  0  0  0  0  0  0  0
    3.5222   -0.2748   -0.2371 O   0  0  0  0  0  0  0  0  0  0  0  0
   -1.3486   -0.4000    1.2944 C   0  0  0  0  0  0  0  0  0  0  0  0
   -4.7815    1.4470   -2.5295 H   0  0  0  0  0  0  0  0  0  0  0  0
   -4.5265    2.6567   -1.2620 H   0  0  0  0  0  0  0  0  0  0  0  0
   -3.2166    1.5593   -1.7044 H   0  0  0  0  0  0  0  0  0  0  0  0
   -6.8297    0.6487   -1.2543 H   0  0  0  0  0  0  0  0  0  0  0  0
   -6.6991    0.0638    0.4045 H   0  0  0  0  0  0  0  0  0  0  0  0
   -6.5357    1.7877    0.0699 H   0  0  0  0  0  0  0  0  0  0  0  0
   -4.8151   -1.5661   -0.3116 H   0  0  0  0  0  0  0  0  0  0  0  0
   -3.3706   -0.9298   -1.1135 H   0  0  0  0  0  0  0  0  0  0  0  0
   -4.9149   -0.9845   -1.9673 H   0  0  0  0  0  0  0  0  0  0  0  0
   -4.0106    1.9572    0.9936 H   0  0  0  0  0  0  0  0  0  0  0  0
   -3.5289   -2.8872    2.1801 H   0  0  0  0  0  0  0  0  0  0  0  0
   -1.5389   -4.2653    1.6460 H   0  0  0  0  0  0  0  0  0  0  0  0
    0.5440   -3.1990    0.8910 H   0  0  0  0  0  0  0  0  0  0  0  0
    1.7449   -1.3065    0.3879 H   0  0  0  0  0  0  0  0  0  0  0  0
    2.4950    2.9732   -0.4116 H   0  0  0  0  0  0  0  0  0  0  0  0
    7.1245    2.1925   -1.6246 H   0  0  0  0  0  0  0  0  0  0  0  0
    9.0414    1.0303   -1.9960 H   0  0  0  0  0  0  0  0  0  0  0  0
    7.5764   -2.0611   -1.1298 H   0  0  0  0  0  0  0  0  0  0  0  0
    5.2020   -2.2398   -0.4265 H   0  0  0  0  0  0  0  0  0  0  0  0
   -1.3303    0.6828    1.2227 H   0  0  0  0  0  0  0  0  0  0  0  0
  1  2  1  0
  2  3  1  0
  2  4  1  0
  2  5  1  0
  5  6  1  0
  6  7  2  0
  6  8  2  0
  6  9  1  0
  9 10  2  0
 10 11  1  0
 11 12  2  0
 12 13  1  0
 13 14  1  0
 14 15  1  0
 15 16  2  0
 15 17  1  0
 17 18  2  0
 18 19  1  0
 19 20  2  0
 19 21  1  0
 21 22  1  0
 22 23  2  0
 23 24  1  0
 23 25  1  0
 25 26  2  0
 26 27  1  0
 27 28  1  0
 13 29  2  0
 29  9  1  0
 28 17  1  0
 27 21  2  0
  1 30  1  0
  1 31  1  0
  1 32  1  0
  3 33  1  0
  3 34  1  0
  3 35  1  0
  4 36  1  0
  4 37  1  0
  4 38  1  0
  5 39  1  0
 10 40  1  0
 11 41  1  0
 12 42  1  0
 14 43  1  0
 18 44  1  0
 22 45  1  0
 24 46  1  0
 25 47  1  0
 26 48  1  0
 29 49  1  0
M  END
$$$$
OCNT-2314906
     RDKit          3D

 43 43  0  0  0  0  0  0  0  0999 V2000
   -3.3754    0.7526   -0.3236 C   0  0  0  0  0  0  0  0  0  0  0  0
   -3.8184   -0.3043    0.6901 C   0  0  0  0  0  0  0  0  0  0  0  0
   -4.8950   -1.2180    0.0908 C   0  0  0  0  0  0  0  0  0  0  0  0
   -4.4159    0.4199    1.9129 C   0  0  0  0  0  0  0  0  0  0  0  0
   -2.6843   -1.1233    1.2206 N   0  0  0  0  0  0  0  0  0  0  0  0
   -1.5061   -1.7933    0.2293 S   0  0  0  0  0  0  0  0  0  0  0  0
   -0.7672   -2.6906    1.0854 O   0  0  0  0  0  0  0  0  0  0  0  0
   -2.1335   -2.2147   -0.9932 O   0  0  0  0  0  0  0  0  0  0  0  0
   -0.5742   -0.4463    0.0330 N   0  0  0  0  0  0  0  0  0  0  0  0
    0.3350   -0.2916   -1.0351 C   0  0  0  0  0  0  0  0  0  0  0  0
    0.2952   -1.0072   -2.0286 O   0  0  0  0  0  0  0  0  0  0  0  0
    1.4349    0.7951   -0.8659 C   0  0  0  0  0  0  0  0  0  0  0  0
    1.4450    1.5542   -2.2166 C   0  0  0  0  0  0  0  0  0  0  0  0
    1.1056    1.8317    0.2296 C   0  0  0  0  0  0  0  0  0  0  0  0
    2.7958    0.1567   -0.5179 C   0  0  0  0  0  0  0  0  0  0  0  0
    2.8712   -0.9441    0.3584 C   0  0  0  0  0  0  0  0  0  0  0  0
    4.0993   -1.5168    0.7030 C   0  0  0  0  0  0  0  0  0  0  0  0
    5.2850   -0.9970    0.1896 C   0  0  0  0  0  0  0  0  0  0  0  0
    5.2433    0.1008   -0.6696 C   0  0  0  0  0  0  0  0  0  0  0  0
    6.4609    0.6477   -1.1967 C   0  0  0  0  0  0  0  0  0  0  0  0
    7.4429    1.0984   -1.6247 N   0  0  0  0  0  0  0  0  0  0  0  0
    4.0085    0.6736   -1.0145 C   0  0  0  0  0  0  0  0  0  0  0  0
   -4.2161    1.3951   -0.6132 H   0  0  0  0  0  0  0  0  0  0  0  0
   -2.9896    0.3052   -1.2445 H   0  0  0  0  0  0  0  0  0  0  0  0
   -2.5968    1.4024    0.0893 H   0  0  0  0  0  0  0  0  0  0  0  0
   -5.1819   -2.0088    0.7928 H   0  0  0  0  0  0  0  0  0  0  0  0
   -4.5579   -1.7048   -0.8291 H   0  0  0  0  0  0  0  0  0  0  0  0
   -5.7980   -0.6496   -0.1596 H   0  0  0  0  0  0  0  0  0  0  0  0
   -3.6707    1.0665    2.3908 H   0  0  0  0  0  0  0  0  0  0  0  0
   -5.2721    1.0444    1.6299 H   0  0  0  0  0  0  0  0  0  0  0  0
   -4.7583   -0.2941    2.6713 H   0  0  0  0  0  0  0  0  0  0  0  0
   -3.0227   -1.8761    1.8240 H   0  0  0  0  0  0  0  0  0  0  0  0
   -0.3355   -0.0545    0.9348 H   0  0  0  0  0  0  0  0  0  0  0  0
    1.8224    0.9239   -3.0310 H   0  0  0  0  0  0  0  0  0  0  0  0
    2.0644    2.4575   -2.1789 H   0  0  0  0  0  0  0  0  0  0  0  0
    0.4317    1.8730   -2.4948 H   0  0  0  0  0  0  0  0  0  0  0  0
    0.1062    2.2620    0.0875 H   0  0  0  0  0  0  0  0  0  0  0  0
    1.8257    2.6591    0.2224 H   0  0  0  0  0  0  0  0  0  0  0  0
    1.1422    1.3974    1.2367 H   0  0  0  0  0  0  0  0  0  0  0  0
    1.9773   -1.3909    0.7908 H   0  0  0  0  0  0  0  0  0  0  0  0
    4.1277   -2.3739    1.3725 H   0  0  0  0  0  0  0  0  0  0  0  0
    6.2352   -1.4526    0.4658 H   0  0  0  0  0  0  0  0  0  0  0  0
    4.0141    1.5352   -1.6791 H   0  0  0  0  0  0  0  0  0  0  0  0
  1  2  1  0
  2  3  1  0
  2  4  1  0
  2  5  1  0
  5  6  1  0
  6  7  2  0
  6  8  2  0
  6  9  1  0
  9 10  1  0
 10 11  2  0
 10 12  1  0
 12 13  1  0
 12 14  1  0
 12 15  1  0
 15 16  2  0
 16 17  1  0
 17 18  2  0
 18 19  1  0
 19 20  1  0
 20 21  3  0
 19 22  2  0
 22 15  1  0
  1 23  1  0
  1 24  1  0
  1 25  1  0
  3 26  1  0
  3 27  1  0
  3 28  1  0
  4 29  1  0
  4 30  1  0
  4 31  1  0
  5 32  1  0
  9 33  1  0
 13 34  1  0
 13 35  1  0
 13 36  1  0
 14 37  1  0
 14 38  1  0
 14 39  1  0
 16 40  1  0
 17 41  1  0
 18 42  1  0
 22 43  1  0
M  END
$$$$
OCNT-2314919
     RDKit          3D

 52 54  0  0  0  0  0  0  0  0999 V2000
    4.4288    4.2570   -0.2924 C   0  0  0  0  0  0  0  0  0  0  0  0
    3.2880    3.9166    0.4850 O   0  0  0  0  0  0  0  0  0  0  0  0
    3.0531    2.5848    0.6875 C   0  0  0  0  0  0  0  0  0  0  0  0
    1.9281    2.3019    1.4639 C   0  0  0  0  0  0  0  0  0  0  0  0
    1.5703    0.9821    1.7468 C   0  0  0  0  0  0  0  0  0  0  0  0
    2.3321   -0.0818    1.2486 C   0  0  0  0  0  0  0  0  0  0  0  0
    1.9355   -1.5160    1.5403 C   0  0  0  0  0  0  0  0  0  0  0  0
    0.9638   -2.2045    0.5170 C   0  0  0  0  0  0  0  0  0  0  0  0
    1.6666   -2.3320   -0.8516 C   0  0  0  0  0  0  0  0  0  0  0  0
    0.6357   -3.6309    1.0567 C   0  0  0  0  0  0  0  0  0  0  0  0
    1.8038   -4.4263    1.2466 O   0  0  0  0  0  0  0  0  0  0  0  0
   -0.2723   -1.3871    0.4238 N   0  0  0  0  0  0  0  0  0  0  0  0
   -1.2872   -1.8482   -0.5137 C   0  0  0  0  0  0  0  0  0  0  0  0
   -2.4001   -0.8577   -0.5184 C   0  0  0  0  0  0  0  0  0  0  0  0
   -2.6385    0.2344   -1.3383 C   0  0  0  0  0  0  0  0  0  0  0  0
   -1.8146    0.7660   -2.4570 C   0  0  0  0  0  0  0  0  0  0  0  0
   -2.7262    1.9369   -3.5208 S   0  0  0  0  0  0  0  0  0  0  0  0
   -3.6176    2.8644   -2.2180 C   0  0  0  0  0  0  0  0  0  0  0  0
   -4.5577    1.9663   -1.4140 C   0  0  0  0  0  0  0  0  0  0  0  0
   -3.8514    0.7826   -0.8537 C   0  0  0  0  0  0  0  0  0  0  0  0
   -4.3389    0.1019    0.1853 N   0  0  0  0  0  0  0  0  0  0  0  0
   -3.4346   -0.8758    0.3846 N   0  0  0  0  0  0  0  0  0  0  0  0
   -3.6237   -1.7956    1.4821 C   0  0  0  0  0  0  0  0  0  0  0  0
    3.4651    0.2066    0.4775 C   0  0  0  0  0  0  0  0  0  0  0  0
    3.8225    1.5306    0.1967 C   0  0  0  0  0  0  0  0  0  0  0  0
    4.4760    5.3483   -0.3568 H   0  0  0  0  0  0  0  0  0  0  0  0
    4.3425    3.8669   -1.3120 H   0  0  0  0  0  0  0  0  0  0  0  0
    5.3508    3.9117    0.1870 H   0  0  0  0  0  0  0  0  0  0  0  0
    1.3242    3.1178    1.8538 H   0  0  0  0  0  0  0  0  0  0  0  0
    0.6874    0.7914    2.3541 H   0  0  0  0  0  0  0  0  0  0  0  0
    1.4837   -1.5448    2.5426 H   0  0  0  0  0  0  0  0  0  0  0  0
    2.8595   -2.1031    1.6320 H   0  0  0  0  0  0  0  0  0  0  0  0
    2.6701   -2.7592   -0.7441 H   0  0  0  0  0  0  0  0  0  0  0  0
    1.7713   -1.3601   -1.3463 H   0  0  0  0  0  0  0  0  0  0  0  0
    1.1120   -2.9877   -1.5319 H   0  0  0  0  0  0  0  0  0  0  0  0
    0.0950   -3.5799    2.0094 H   0  0  0  0  0  0  0  0  0  0  0  0
    0.0025   -4.1788    0.3516 H   0  0  0  0  0  0  0  0  0  0  0  0
    2.1361   -4.2500    2.1439 H   0  0  0  0  0  0  0  0  0  0  0  0
   -0.0085   -0.4380    0.1494 H   0  0  0  0  0  0  0  0  0  0  0  0
   -1.6733   -2.8337   -0.2358 H   0  0  0  0  0  0  0  0  0  0  0  0
   -0.8876   -1.9286   -1.5298 H   0  0  0  0  0  0  0  0  0  0  0  0
   -0.9353    1.2807   -2.0552 H   0  0  0  0  0  0  0  0  0  0  0  0
   -1.4595   -0.0517   -3.0921 H   0  0  0  0  0  0  0  0  0  0  0  0
   -2.8759    3.3401   -1.5664 H   0  0  0  0  0  0  0  0  0  0  0  0
   -4.1911    3.6635   -2.6986 H   0  0  0  0  0  0  0  0  0  0  0  0
   -5.0039    2.5548   -0.6034 H   0  0  0  0  0  0  0  0  0  0  0  0
   -5.3824    1.6230   -2.0512 H   0  0  0  0  0  0  0  0  0  0  0  0
   -2.7222   -1.7963    2.0991 H   0  0  0  0  0  0  0  0  0  0  0  0
   -3.8129   -2.7890    1.0686 H   0  0  0  0  0  0  0  0  0  0  0  0
   -4.4784   -1.4754    2.0840 H   0  0  0  0  0  0  0  0  0  0  0  0
    4.0821   -0.5993    0.0856 H   0  0  0  0  0  0  0  0  0  0  0  0
    4.7072    1.7014   -0.4072 H   0  0  0  0  0  0  0  0  0  0  0  0
  1  2  1  0
  2  3  1  0
  3  4  1  0
  4  5  2  0
  5  6  1  0
  6  7  1  0
  7  8  1  0
  8  9  1  0
  8 10  1  0
 10 11  1  0
  8 12  1  0
 12 13  1  0
 13 14  1  0
 14 15  2  0
 15 16  1  0
 16 17  1  0
 17 18  1  0
 18 19  1  0
 19 20  1  0
 20 21  2  0
 21 22  1  0
 22 23  1  0
  6 24  2  0
 24 25  1  0
 25  3  2  0
 22 14  1  0
 20 15  1  0
  1 26  1  0
  1 27  1  0
  1 28  1  0
  4 29  1  0
  5 30  1  0
  7 31  1  0
  7 32  1  0
  9 33  1  0
  9 34  1  0
  9 35  1  0
 10 36  1  0
 10 37  1  0
 11 38  1  0
 12 39  1  0
 13 40  1  0
 13 41  1  0
 16 42  1  0
 16 43  1  0
 18 44  1  0
 18 45  1  0
 19 46  1  0
 19 47  1  0
 23 48  1  0
 23 49  1  0
 23 50  1  0
 24 51  1  0
 25 52  1  0
M  END
$$$$
OCNT-2314930
     RDKit          3D

 47 50  0  0  0  0  0  0  0  0999 V2000
   -4.6769    1.8402   -2.3550 C   0  0  0  0  0  0  0  0  0  0  0  0
   -4.7434    2.1374   -0.9578 O   0  0  0  0  0  0  0  0  0  0  0  0
   -4.8429    0.9588   -0.2499 C   0  0  0  0  0  0  0  0  0  0  0  0
   -6.1425    0.4679   -0.0519 C   0  0  0  0  0  0  0  0  0  0  0  0
   -6.3399   -0.7413    0.6016 C   0  0  0  0  0  0  0  0  0  0  0  0
   -5.2384   -1.4530    1.0558 C   0  0  0  0  0  0  0  0  0  0  0  0
   -3.9453   -0.9424    0.8762 C   0  0  0  0  0  0  0  0  0  0  0  0
   -3.6988    0.2944    0.2491 C   0  0  0  0  0  0  0  0  0  0  0  0
   -2.4111    0.7825    0.1272 N   0  0  0  0  0  0  0  0  0  0  0  0
   -2.1088    2.2045   -0.0355 C   0  0  0  0  0  0  0  0  0  0  0  0
   -0.6904    2.3593    0.5103 C   0  0  0  0  0  0  0  0  0  0  0  0
   -0.0567    1.0061    0.2226 C   0  0  0  0  0  0  0  0  0  0  0  0
    1.1401    0.7732    1.0158 N   0  0  0  0  0  0  0  0  0  0  0  0
    1.9603   -0.3100    0.7440 C   0  0  0  0  0  0  0  0  0  0  0  0
    1.7544   -1.0598   -0.2038 O   0  0  0  0  0  0  0  0  0  0  0  0
    3.1043   -0.4571    1.7314 C   0  0  0  0  0  0  0  0  0  0  0  0
    4.1863   -1.3580    1.2547 C   0  0  0  0  0  0  0  0  0  0  0  0
    4.5857   -2.3818    2.0251 N   0  0  0  0  0  0  0  0  0  0  0  0
    5.6258   -2.9859    1.3380 O   0  0  0  0  0  0  0  0  0  0  0  0
    5.8516   -2.3216    0.1759 C   0  0  0  0  0  0  0  0  0  0  0  0
    6.8286   -2.6239   -0.7671 C   0  0  0  0  0  0  0  0  0  0  0  0
    6.8845   -1.7900   -1.8880 C   0  0  0  0  0  0  0  0  0  0  0  0
    5.9997   -0.7187   -2.0379 C   0  0  0  0  0  0  0  0  0  0  0  0
    5.0269   -0.4433   -1.0651 C   0  0  0  0  0  0  0  0  0  0  0  0
    4.9600   -1.2708    0.0678 C   0  0  0  0  0  0  0  0  0  0  0  0
   -1.2141    0.0337    0.5160 C   0  0  0  0  0  0  0  0  0  0  0  0
   -5.6210    1.4119   -2.7115 H   0  0  0  0  0  0  0  0  0  0  0  0
   -3.8398    1.1736   -2.5903 H   0  0  0  0  0  0  0  0  0  0  0  0
   -4.5133    2.7825   -2.8862 H   0  0  0  0  0  0  0  0  0  0  0  0
   -6.9940    1.0298   -0.4234 H   0  0  0  0  0  0  0  0  0  0  0  0
   -7.3431   -1.1290    0.7466 H   0  0  0  0  0  0  0  0  0  0  0  0
   -5.3761   -2.4045    1.5640 H   0  0  0  0  0  0  0  0  0  0  0  0
   -3.1241   -1.5378    1.2652 H   0  0  0  0  0  0  0  0  0  0  0  0
   -2.1292    2.4723   -1.0973 H   0  0  0  0  0  0  0  0  0  0  0  0
   -2.7876    2.8565    0.5236 H   0  0  0  0  0  0  0  0  0  0  0  0
   -0.1516    3.1886    0.0426 H   0  0  0  0  0  0  0  0  0  0  0  0
   -0.7246    2.5518    1.5902 H   0  0  0  0  0  0  0  0  0  0  0  0
    0.2113    0.9398   -0.8401 H   0  0  0  0  0  0  0  0  0  0  0  0
    1.1929    1.1961    1.9341 H   0  0  0  0  0  0  0  0  0  0  0  0
    3.5354    0.5357    1.9266 H   0  0  0  0  0  0  0  0  0  0  0  0
    2.6778   -0.8254    2.6746 H   0  0  0  0  0  0  0  0  0  0  0  0
    7.5055   -3.4575   -0.6334 H   0  0  0  0  0  0  0  0  0  0  0  0
    7.6280   -1.9806   -2.6592 H   0  0  0  0  0  0  0  0  0  0  0  0
    6.0622   -0.0886   -2.9237 H   0  0  0  0  0  0  0  0  0  0  0  0
    4.3382    0.3842   -1.2003 H   0  0  0  0  0  0  0  0  0  0  0  0
   -1.1050   -0.8904   -0.0603 H   0  0  0  0  0  0  0  0  0  0  0  0
   -1.2406   -0.2095    1.5845 H   0  0  0  0  0  0  0  0  0  0  0  0
  1  2  1  0
  2  3  1  0
  3  4  2  0
  4  5  1  0
  5  6  2  0
  6  7  1  0
  7  8  2  0
  8  9  1  0
  9 10  1  0
 10 11  1  0
 11 12  1  0
 12 13  1  0
 13 14  1  0
 14 15  2  0
 14 16  1  0
 16 17  1  0
 17 18  2  0
 18 19  1  0
 19 20  1  0
 20 21  2  0
 21 22  1  0
 22 23  2  0
 23 24  1  0
 24 25  2  0
 12 26  1  0
  8  3  1  0
 26  9  1  0
 25 17  1  0
 25 20  1  0
  1 27  1  0
  1 28  1  0
  1 29  1  0
  4 30  1  0
  5 31  1  0
  6 32  1  0
  7 33  1  0
 10 34  1  0
 10 35  1  0
 11 36  1  0
 11 37  1  0
 12 38  1  0
 13 39  1  0
 16 40  1  0
 16 41  1  0
 21 42  1  0
 22 43  1  0
 23 44  1  0
 24 45  1  0
 26 46  1  0
 26 47  1  0
M  END
$$$$
OCNT-2314947
     RDKit          3D

 42 46  0  0  0  0  0  0  0  0999 V2000
    6.5178   -0.5922   -1.1418 O   0  0  0  0  0  0  0  0  0  0  0  0
    5.3543   -0.7503   -0.7915 C   0  0  0  0  0  0  0  0  0  0  0  0
    4.9483   -1.8376   -0.0628 N   0  0  0  0  0  0  0  0  0  0  0  0
    3.6931   -2.0615    0.4055 N   0  0  0  0  0  0  0  0  0  0  0  0
    2.7454   -1.2059    0.1332 C   0  0  0  0  0  0  0  0  0  0  0  0
    1.4403   -1.4816    0.6995 C   0  0  0  0  0  0  0  0  0  0  0  0
    0.4124   -0.6693    0.8185 N   0  0  0  0  0  0  0  0  0  0  0  0
   -0.5392   -1.4691    1.4079 C   0  0  0  0  0  0  0  0  0  0  0  0
   -1.9196   -0.9934    1.7429 C   0  0  0  0  0  0  0  0  0  0  0  0
   -1.8581    0.1355    2.7853 C   0  0  0  0  0  0  0  0  0  0  0  0
   -3.1541    0.9307    2.8126 C   0  0  0  0  0  0  0  0  0  0  0  0
   -3.3735    1.6010    1.4604 C   0  0  0  0  0  0  0  0  0  0  0  0
   -3.2894    0.6237    0.3135 C   0  0  0  0  0  0  0  0  0  0  0  0
   -3.9050    0.9633   -0.9025 C   0  0  0  0  0  0  0  0  0  0  0  0
   -3.8771    0.0865   -1.9848 C   0  0  0  0  0  0  0  0  0  0  0  0
   -3.2383   -1.1418   -1.8632 C   0  0  0  0  0  0  0  0  0  0  0  0
   -2.6099   -1.4850   -0.6657 C   0  0  0  0  0  0  0  0  0  0  0  0
   -2.5911   -0.5973    0.4296 C   0  0  0  0  0  0  0  0  0  0  0  0
   -0.1250   -2.7130    1.6854 N   0  0  0  0  0  0  0  0  0  0  0  0
    1.1916   -2.7244    1.2197 O   0  0  0  0  0  0  0  0  0  0  0  0
    2.9921    0.0017   -0.7106 C   0  0  0  0  0  0  0  0  0  0  0  0
    2.0009    0.9096   -1.1125 C   0  0  0  0  0  0  0  0  0  0  0  0
    2.3265    2.0180   -1.9034 C   0  0  0  0  0  0  0  0  0  0  0  0
    3.6404    2.2303   -2.3106 C   0  0  0  0  0  0  0  0  0  0  0  0
    4.6310    1.3272   -1.9357 C   0  0  0  0  0  0  0  0  0  0  0  0
    4.3025    0.2164   -1.1448 C   0  0  0  0  0  0  0  0  0  0  0  0
    5.6583   -2.5185    0.1920 H   0  0  0  0  0  0  0  0  0  0  0  0
   -2.5114   -1.8169    2.1657 H   0  0  0  0  0  0  0  0  0  0  0  0
   -1.0283    0.8236    2.5734 H   0  0  0  0  0  0  0  0  0  0  0  0
   -1.6553   -0.2900    3.7760 H   0  0  0  0  0  0  0  0  0  0  0  0
   -3.1111    1.6929    3.5987 H   0  0  0  0  0  0  0  0  0  0  0  0
   -3.9944    0.2664    3.0502 H   0  0  0  0  0  0  0  0  0  0  0  0
   -4.3573    2.0855    1.4677 H   0  0  0  0  0  0  0  0  0  0  0  0
   -2.6196    2.3825    1.3045 H   0  0  0  0  0  0  0  0  0  0  0  0
   -4.4230    1.9145   -1.0067 H   0  0  0  0  0  0  0  0  0  0  0  0
   -4.3649    0.3571   -2.9173 H   0  0  0  0  0  0  0  0  0  0  0  0
   -3.2301   -1.8366   -2.6990 H   0  0  0  0  0  0  0  0  0  0  0  0
   -2.1298   -2.4602   -0.5966 H   0  0  0  0  0  0  0  0  0  0  0  0
    0.9566    0.7893   -0.8401 H   0  0  0  0  0  0  0  0  0  0  0  0
    1.5460    2.7146   -2.2037 H   0  0  0  0  0  0  0  0  0  0  0  0
    3.8910    3.0913   -2.9259 H   0  0  0  0  0  0  0  0  0  0  0  0
    5.6569    1.4833   -2.2650 H   0  0  0  0  0  0  0  0  0  0  0  0
  1  2  2  0
  2  3  1  0
  3  4  1  0
  4  5  2  0
  5  6  1  0
  6  7  2  0
  7  8  1  0
  8  9  1  0
  9 10  1  0
 10 11  1  0
 11 12  1  0
 12 13  1  0
 13 14  2  0
 14 15  1  0
 15 16  2  0
 16 17  1  0
 17 18  2  0
  8 19  2  0
 19 20  1  0
  5 21  1  0
 21 22  2  0
 22 23  1  0
 23 24  2  0
 24 25  1  0
 25 26  2  0
 26  2  1  0
 20  6  1  0
 26 21  1  0
 18  9  1  0
 18 13  1  0
  3 27  1  0
  9 28  1  0
 10 29  1  0
 10 30  1  0
 11 31  1  0
 11 32  1  0
 12 33  1  0
 12 34  1  0
 14 35  1  0
 15 36  1  0
 16 37  1  0
 17 38  1  0
 22 39  1  0
 23 40  1  0
 24 41  1  0
 25 42  1  0
M  END
$$$$
OCNT-2314951
     RDKit          3D

 37 38  0  0  0  0  0  0  0  0999 V2000
   -5.8846   -0.5234    0.2164 C   0  0  0  0  0  0  0  0  0  0  0  0
   -4.8556    0.4412    0.0499 O   0  0  0  0  0  0  0  0  0  0  0  0
   -3.5568    0.0283    0.2172 C   0  0  0  0  0  0  0  0  0  0  0  0
   -3.1763   -1.2834    0.5149 C   0  0  0  0  0  0  0  0  0  0  0  0
   -1.8246   -1.6154    0.6671 C   0  0  0  0  0  0  0  0  0  0  0  0
   -1.4205   -3.4329    1.0520 Br  0  0  0  0  0  0  0  0  0  0  0  0
   -0.8285   -0.6390    0.5319 C   0  0  0  0  0  0  0  0  0  0  0  0
    0.6504   -0.9286    0.6650 C   0  0  0  0  0  0  0  0  0  0  0  0
    1.2755   -1.3417   -0.6726 C   0  0  0  0  0  0  0  0  0  0  0  0
    2.6994   -1.6361   -0.5415 N   0  0  0  0  0  0  0  0  0  0  0  0
    3.6654   -0.6474   -0.3191 C   0  0  0  0  0  0  0  0  0  0  0  0
    3.4998    0.7200   -0.5692 C   0  0  0  0  0  0  0  0  0  0  0  0
    2.3249    1.2249   -0.9747 F   0  0  0  0  0  0  0  0  0  0  0  0
    4.5636    1.5965   -0.3804 C   0  0  0  0  0  0  0  0  0  0  0  0
    5.7976    1.2194    0.0273 N   0  0  0  0  0  0  0  0  0  0  0  0
    5.9626   -0.1048    0.2415 C   0  0  0  0  0  0  0  0  0  0  0  0
    4.9527   -1.0432    0.0762 C   0  0  0  0  0  0  0  0  0  0  0  0
    5.2110   -2.3391    0.3151 F   0  0  0  0  0  0  0  0  0  0  0  0
   -1.2202    0.6778    0.2220 C   0  0  0  0  0  0  0  0  0  0  0  0
   -2.5690    1.0190    0.0652 C   0  0  0  0  0  0  0  0  0  0  0  0
   -3.0206    2.2801   -0.2341 O   0  0  0  0  0  0  0  0  0  0  0  0
   -2.0534    3.3021   -0.4273 C   0  0  0  0  0  0  0  0  0  0  0  0
   -6.8436   -0.0197    0.0613 H   0  0  0  0  0  0  0  0  0  0  0  0
   -5.8842   -0.9309    1.2327 H   0  0  0  0  0  0  0  0  0  0  0  0
   -5.8034   -1.3198   -0.5306 H   0  0  0  0  0  0  0  0  0  0  0  0
   -3.9183   -2.0664    0.6298 H   0  0  0  0  0  0  0  0  0  0  0  0
    1.1501   -0.0346    1.0597 H   0  0  0  0  0  0  0  0  0  0  0  0
    0.8310   -1.6946    1.4279 H   0  0  0  0  0  0  0  0  0  0  0  0
    0.7877   -2.2550   -1.0344 H   0  0  0  0  0  0  0  0  0  0  0  0
    1.0970   -0.5954   -1.4545 H   0  0  0  0  0  0  0  0  0  0  0  0
    2.9051   -2.5068   -0.0513 H   0  0  0  0  0  0  0  0  0  0  0  0
    4.4353    2.6588   -0.5643 H   0  0  0  0  0  0  0  0  0  0  0  0
    6.9541   -0.4135    0.5571 H   0  0  0  0  0  0  0  0  0  0  0  0
   -0.4428    1.4280    0.1048 H   0  0  0  0  0  0  0  0  0  0  0  0
   -2.5871    4.2261   -0.6696 H   0  0  0  0  0  0  0  0  0  0  0  0
   -1.3941    3.0688   -1.2698 H   0  0  0  0  0  0  0  0  0  0  0  0
   -1.4797    3.4806    0.4881 H   0  0  0  0  0  0  0  0  0  0  0  0
  1  2  1  0
  2  3  1  0
  3  4  1  0
  4  5  2  0
  5  6  1  0
  5  7  1  0
  7  8  1  0
  8  9  1  0
  9 10  1  0
 10 11  1  0
 11 12  2  0
 12 13  1  0
 12 14  1  0
 14 15  2  0
 15 16  1  0
 16 17  2  0
 17 18  1  0
  7 19  2  0
 19 20  1  0
 20 21  1  0
 21 22  1  0
 20  3  2  0
 17 11  1  0
  1 23  1  0
  1 24  1  0
  1 25  1  0
  4 26  1  0
  8 27  1  0
  8 28  1  0
  9 29  1  0
  9 30  1  0
 10 31  1  0
 14 32  1  0
 16 33  1  0
 19 34  1  0
 22 35  1  0
 22 36  1  0
 22 37  1  0
M  END
$$$$
OCNT-2314960
     RDKit          3D

 41 42  0  0  0  0  0  0  0  0999 V2000
   -2.5903   -0.9244    1.8255 C   0  0  0  0  0  0  0  0  0  0  0  0
   -1.6082   -0.9880    0.7556 N   0  0  0  0  0  0  0  0  0  0  0  0
   -2.1965   -0.6000   -0.5371 C   0  0  0  0  0  0  0  0  0  0  0  0
   -3.1294   -1.6526   -1.1401 C   0  0  0  0  0  0  0  0  0  0  0  0
   -2.4160   -2.9819   -1.2673 C   0  0  0  0  0  0  0  0  0  0  0  0
   -1.8080   -3.4139    0.0660 C   0  0  0  0  0  0  0  0  0  0  0  0
   -0.9405   -2.3107    0.6987 C   0  0  0  0  0  0  0  0  0  0  0  0
    0.4291   -2.1616   -0.0140 C   0  0  0  0  0  0  0  0  0  0  0  0
    0.8714   -2.9717   -0.8240 O   0  0  0  0  0  0  0  0  0  0  0  0
    1.1370   -1.0378    0.4102 N   0  0  0  0  0  0  0  0  0  0  0  0
    2.3059   -0.5791   -0.3204 C   0  0  0  0  0  0  0  0  0  0  0  0
    1.9132    0.3647   -1.4699 C   0  0  0  0  0  0  0  0  0  0  0  0
    1.1478    1.5109   -0.9628 N   0  0  0  0  0  0  0  0  0  0  0  0
    1.8716    2.5691   -0.3955 C   0  0  0  0  0  0  0  0  0  0  0  0
    3.2161    2.4593   -0.2794 N   0  0  0  0  0  0  0  0  0  0  0  0
    3.8932    3.4845    0.3196 C   0  0  0  0  0  0  0  0  0  0  0  0
    3.2861    4.6289    0.8289 C   0  0  0  0  0  0  0  0  0  0  0  0
    4.2082    5.8414    1.5945 Cl  0  0  0  0  0  0  0  0  0  0  0  0
    1.9080    4.7474    0.7156 C   0  0  0  0  0  0  0  0  0  0  0  0
    1.1917    3.7070    0.0999 C   0  0  0  0  0  0  0  0  0  0  0  0
   -0.5277    3.8586   -0.0387 Cl  0  0  0  0  0  0  0  0  0  0  0  0
   -3.1817   -0.0024    1.7680 H   0  0  0  0  0  0  0  0  0  0  0  0
   -3.2944   -1.7661    1.8360 H   0  0  0  0  0  0  0  0  0  0  0  0
   -2.0648   -0.8963    2.7828 H   0  0  0  0  0  0  0  0  0  0  0  0
   -2.7265    0.3589   -0.4387 H   0  0  0  0  0  0  0  0  0  0  0  0
   -1.3813   -0.3977   -1.2441 H   0  0  0  0  0  0  0  0  0  0  0  0
   -3.4681   -1.3169   -2.1256 H   0  0  0  0  0  0  0  0  0  0  0  0
   -4.0287   -1.7713   -0.5243 H   0  0  0  0  0  0  0  0  0  0  0  0
   -1.6267   -2.8935   -2.0215 H   0  0  0  0  0  0  0  0  0  0  0  0
   -3.1141   -3.7461   -1.6209 H   0  0  0  0  0  0  0  0  0  0  0  0
   -2.6238   -3.6883    0.7480 H   0  0  0  0  0  0  0  0  0  0  0  0
   -1.2194   -4.3242   -0.0846 H   0  0  0  0  0  0  0  0  0  0  0  0
   -0.6822   -2.6217    1.7093 H   0  0  0  0  0  0  0  0  0  0  0  0
    0.5442   -0.3144    0.8150 H   0  0  0  0  0  0  0  0  0  0  0  0
    2.8524   -1.4426   -0.7244 H   0  0  0  0  0  0  0  0  0  0  0  0
    2.9449   -0.0784    0.4111 H   0  0  0  0  0  0  0  0  0  0  0  0
    2.7892    0.6756   -2.0464 H   0  0  0  0  0  0  0  0  0  0  0  0
    1.2696   -0.1721   -2.1670 H   0  0  0  0  0  0  0  0  0  0  0  0
    0.4869    1.8758   -1.6436 H   0  0  0  0  0  0  0  0  0  0  0  0
    4.9718    3.3419    0.3839 H   0  0  0  0  0  0  0  0  0  0  0  0
    1.3902    5.6299    1.1035 H   0  0  0  0  0  0  0  0  0  0  0  0
  1  2  1  0
  2  3  1  0
  3  4  1  0
  4  5  1  0
  5  6  1  0
  6  7  1  0
  7  8  1  0
  8  9  2  0
  8 10  1  0
 10 11  1  0
 11 12  1  0
 12 13  1  0
 13 14  1  0
 14 15  1  0
 15 16  2  0
 16 17  1  0
 17 18  1  0
 17 19  2  0
 19 20  1  0
 20 21  1  0
  7  2  1  0
 20 14  2  0
  1 22  1  0
  1 23  1  0
  1 24  1  0
  3 25  1  0
  3 26  1  0
  4 27  1  0
  4 28  1  0
  5 29  1  0
  5 30  1  0
  6 31  1  0
  6 32  1  0
  7 33  1  0
 10 34  1  0
 11 35  1  0
 11 36  1  0
 12 37  1  0
 12 38  1  0
 13 39  1  0
 16 40  1  0
 19 41  1  0
M  END
$$$$
OCNT-2314961
     RDKit          3D

 58 60  0  0  0  0  0  0  0  0999 V2000
    0.9410   -4.5739   -0.3570 C   0  0  0  0  0  0  0  0  0  0  0  0
   -0.4061   -3.8433   -0.5449 C   0  0  0  0  0  0  0  0  0  0  0  0
   -0.7925   -3.9461   -2.0345 C   0  0  0  0  0  0  0  0  0  0  0  0
   -1.4589   -4.6065    0.2878 C   0  0  0  0  0  0  0  0  0  0  0  0
   -0.3038   -2.3487   -0.0584 C   0  0  0  0  0  0  0  0  0  0  0  0
   -1.6855   -1.6166   -0.0162 C   0  0  0  0  0  0  0  0  0  0  0  0
   -1.5843   -0.1400    0.1009 N   0  0  0  0  0  0  0  0  0  0  0  0
   -1.1094    0.2670    1.4369 C   0  0  0  0  0  0  0  0  0  0  0  0
   -0.8741    1.7855    1.4960 C   0  0  0  0  0  0  0  0  0  0  0  0
   -2.0219    2.5796    0.9305 C   0  0  0  0  0  0  0  0  0  0  0  0
   -2.1132    3.9570    1.1711 C   0  0  0  0  0  0  0  0  0  0  0  0
   -3.1561    4.7011    0.6199 C   0  0  0  0  0  0  0  0  0  0  0  0
   -4.1096    4.0779   -0.1798 C   0  0  0  0  0  0  0  0  0  0  0  0
   -4.0202    2.7088   -0.4330 C   0  0  0  0  0  0  0  0  0  0  0  0
   -2.9702    1.9508    0.1073 C   0  0  0  0  0  0  0  0  0  0  0  0
   -2.9170    0.4584   -0.1376 C   0  0  0  0  0  0  0  0  0  0  0  0
    0.6256   -1.5495   -0.8696 N   0  0  0  0  0  0  0  0  0  0  0  0
    1.9579   -1.4005   -0.5306 C   0  0  0  0  0  0  0  0  0  0  0  0
    2.4912   -2.0300    0.3791 O   0  0  0  0  0  0  0  0  0  0  0  0
    2.7000   -0.3821   -1.4140 C   0  0  0  0  0  0  0  0  0  0  0  0
    3.6121    0.4748   -0.6437 N   0  0  0  0  0  0  0  0  0  0  0  0
    2.8988    1.3364    0.2885 C   0  0  0  0  0  0  0  0  0  0  0  0
    3.9241    2.1368    1.0283 C   0  0  0  0  0  0  0  0  0  0  0  0
    3.5277    3.4168    1.7166 C   0  0  0  0  0  0  0  0  0  0  0  0
    4.4059    3.4624    0.4984 C   0  0  0  0  0  0  0  0  0  0  0  0
    0.8499   -5.6412   -0.5892 H   0  0  0  0  0  0  0  0  0  0  0  0
    1.7148   -4.1720   -1.0185 H   0  0  0  0  0  0  0  0  0  0  0  0
    1.2925   -4.4951    0.6781 H   0  0  0  0  0  0  0  0  0  0  0  0
   -0.0708   -3.4262   -2.6745 H   0  0  0  0  0  0  0  0  0  0  0  0
   -0.8193   -4.9934   -2.3588 H   0  0  0  0  0  0  0  0  0  0  0  0
   -1.7828   -3.5252   -2.2323 H   0  0  0  0  0  0  0  0  0  0  0  0
   -2.4706   -4.2293    0.1088 H   0  0  0  0  0  0  0  0  0  0  0  0
   -1.4690   -5.6723    0.0339 H   0  0  0  0  0  0  0  0  0  0  0  0
   -1.2490   -4.5240    1.3597 H   0  0  0  0  0  0  0  0  0  0  0  0
    0.0875   -2.3604    0.9673 H   0  0  0  0  0  0  0  0  0  0  0  0
   -2.3011   -2.0223    0.7958 H   0  0  0  0  0  0  0  0  0  0  0  0
   -2.2103   -1.8290   -0.9538 H   0  0  0  0  0  0  0  0  0  0  0  0
   -1.8324   -0.0301    2.2095 H   0  0  0  0  0  0  0  0  0  0  0  0
   -0.1596   -0.2194    1.6845 H   0  0  0  0  0  0  0  0  0  0  0  0
    0.0245    2.0385    0.9203 H   0  0  0  0  0  0  0  0  0  0  0  0
   -0.6985    2.0767    2.5388 H   0  0  0  0  0  0  0  0  0  0  0  0
   -1.3733    4.4558    1.7926 H   0  0  0  0  0  0  0  0  0  0  0  0
   -3.2263    5.7665    0.8179 H   0  0  0  0  0  0  0  0  0  0  0  0
   -4.9262    4.6568   -0.6042 H   0  0  0  0  0  0  0  0  0  0  0  0
   -4.7761    2.2345   -1.0540 H   0  0  0  0  0  0  0  0  0  0  0  0
   -3.1962    0.2732   -1.1818 H   0  0  0  0  0  0  0  0  0  0  0  0
   -3.6721   -0.0092    0.5078 H   0  0  0  0  0  0  0  0  0  0  0  0
    0.1892   -0.7512   -1.3235 H   0  0  0  0  0  0  0  0  0  0  0  0
    1.9943    0.2328   -1.9820 H   0  0  0  0  0  0  0  0  0  0  0  0
    3.2838   -0.9616   -2.1372 H   0  0  0  0  0  0  0  0  0  0  0  0
    4.1504    1.0543   -1.2870 H   0  0  0  0  0  0  0  0  0  0  0  0
    2.3305    0.7501    1.0190 H   0  0  0  0  0  0  0  0  0  0  0  0
    2.2024    1.9933   -0.2459 H   0  0  0  0  0  0  0  0  0  0  0  0
    4.6326    1.4991    1.5494 H   0  0  0  0  0  0  0  0  0  0  0  0
    3.9841    3.6329    2.6739 H   0  0  0  0  0  0  0  0  0  0  0  0
    2.5074    3.7694    1.6178 H   0  0  0  0  0  0  0  0  0  0  0  0
    5.4519    3.7042    0.6363 H   0  0  0  0  0  0  0  0  0  0  0  0
    3.9761    3.8479   -0.4185 H   0  0  0  0  0  0  0  0  0  0  0  0
  1  2  1  0
  2  3  1  0
  2  4  1  0
  2  5  1  0
  5  6  1  0
  6  7  1  0
  7  8  1  0
  8  9  1  0
  9 10  1  0
 10 11  2  0
 11 12  1  0
 12 13  2  0
 13 14  1  0
 14 15  2  0
 15 16  1  0
  5 17  1  0
 17 18  1  0
 18 19  2  0
 18 20  1  0
 20 21  1  0
 21 22  1  0
 22 23  1  0
 23 24  1  0
 24 25  1  0
 16  7  1  0
 25 23  1  0
 15 10  1  0
  1 26  1  0
  1 27  1  0
  1 28  1  0
  3 29  1  0
  3 30  1  0
  3 31  1  0
  4 32  1  0
  4 33  1  0
  4 34  1  0
  5 35  1  0
  6 36  1  0
  6 37  1  0
  8 38  1  0
  8 39  1  0
  9 40  1  0
  9 41  1  0
 11 42  1  0
 12 43  1  0
 13 44  1  0
 14 45  1  0
 16 46  1  0
 16 47  1  0
 17 48  1  0
 20 49  1  0
 20 50  1  0
 21 51  1  0
 22 52  1  0
 22 53  1  0
 23 54  1  0
 24 55  1  0
 24 56  1  0
 25 57  1  0
 25 58  1  0
M  END
$$$$
OCNT-2314962
     RDKit          3D

 47 49  0  0  0  0  0  0  0  0999 V2000
    6.0308   -0.0371   -2.6811 C   0  0  0  0  0  0  0  0  0  0  0  0
    5.2636    0.0835   -1.5866 C   0  0  0  0  0  0  0  0  0  0  0  0
    4.9702    1.4205   -0.9482 C   0  0  0  0  0  0  0  0  0  0  0  0
    3.5807    1.4484   -0.2994 C   0  0  0  0  0  0  0  0  0  0  0  0
    3.3602    0.3487    0.6499 N   0  0  0  0  0  0  0  0  0  0  0  0
    2.4731    0.3937    1.7120 C   0  0  0  0  0  0  0  0  0  0  0  0
    2.4633   -0.4460    2.6079 O   0  0  0  0  0  0  0  0  0  0  0  0
    1.6076    1.4561    1.6891 N   0  0  0  0  0  0  0  0  0  0  0  0
    0.5738    1.5949    2.6906 C   0  0  0  0  0  0  0  0  0  0  0  0
   -0.7270    0.9958    2.2142 C   0  0  0  0  0  0  0  0  0  0  0  0
   -1.6825    1.7896    1.5610 C   0  0  0  0  0  0  0  0  0  0  0  0
   -2.8730    1.2259    1.0986 C   0  0  0  0  0  0  0  0  0  0  0  0
   -3.1046   -0.1406    1.2785 C   0  0  0  0  0  0  0  0  0  0  0  0
   -4.6275   -0.8432    0.7005 S   0  0  0  0  0  0  0  0  0  0  0  0
   -5.6635    0.1541    0.8609 O   0  0  0  0  0  0  0  0  0  0  0  0
   -4.7561   -2.1777    1.2459 O   0  0  0  0  0  0  0  0  0  0  0  0
   -4.2741   -1.0439   -0.9547 N   0  0  0  0  0  0  0  0  0  0  0  0
   -5.3865   -0.7102   -1.8582 C   0  0  0  0  0  0  0  0  0  0  0  0
   -5.4100   -1.2456   -3.2622 C   0  0  0  0  0  0  0  0  0  0  0  0
   -6.4086   -1.7366   -2.2529 C   0  0  0  0  0  0  0  0  0  0  0  0
   -2.1666   -0.9443    1.9291 C   0  0  0  0  0  0  0  0  0  0  0  0
   -0.9774   -0.3749    2.3873 C   0  0  0  0  0  0  0  0  0  0  0  0
    4.2457   -0.8147    0.5400 C   0  0  0  0  0  0  0  0  0  0  0  0
    4.6330   -1.1148   -0.9126 C   0  0  0  0  0  0  0  0  0  0  0  0
    6.4827    0.8280   -3.1573 H   0  0  0  0  0  0  0  0  0  0  0  0
    6.2307   -1.0068   -3.1280 H   0  0  0  0  0  0  0  0  0  0  0  0
    5.7278    1.6079   -0.1768 H   0  0  0  0  0  0  0  0  0  0  0  0
    5.0430    2.2311   -1.6825 H   0  0  0  0  0  0  0  0  0  0  0  0
    2.8023    1.3651   -1.0675 H   0  0  0  0  0  0  0  0  0  0  0  0
    3.4417    2.4068    0.2130 H   0  0  0  0  0  0  0  0  0  0  0  0
    1.3680    1.7933    0.7714 H   0  0  0  0  0  0  0  0  0  0  0  0
    0.4462    2.6676    2.8745 H   0  0  0  0  0  0  0  0  0  0  0  0
    0.8827    1.1407    3.6387 H   0  0  0  0  0  0  0  0  0  0  0  0
   -1.5068    2.8532    1.4133 H   0  0  0  0  0  0  0  0  0  0  0  0
   -3.6122    1.8507    0.6018 H   0  0  0  0  0  0  0  0  0  0  0  0
   -3.9547   -2.0070   -1.0818 H   0  0  0  0  0  0  0  0  0  0  0  0
   -5.7268    0.3163   -1.7338 H   0  0  0  0  0  0  0  0  0  0  0  0
   -5.7671   -0.5888   -4.0469 H   0  0  0  0  0  0  0  0  0  0  0  0
   -4.6225   -1.9203   -3.5738 H   0  0  0  0  0  0  0  0  0  0  0  0
   -6.3028   -2.7467   -1.8753 H   0  0  0  0  0  0  0  0  0  0  0  0
   -7.4374   -1.4067   -2.3478 H   0  0  0  0  0  0  0  0  0  0  0  0
   -2.3461   -2.0059    2.0821 H   0  0  0  0  0  0  0  0  0  0  0  0
   -0.2373   -1.0046    2.8811 H   0  0  0  0  0  0  0  0  0  0  0  0
    5.1385   -0.5987    1.1396 H   0  0  0  0  0  0  0  0  0  0  0  0
    3.7628   -1.6947    0.9792 H   0  0  0  0  0  0  0  0  0  0  0  0
    3.7288   -1.3890   -1.4713 H   0  0  0  0  0  0  0  0  0  0  0  0
    5.3142   -1.9731   -0.9360 H   0  0  0  0  0  0  0  0  0  0  0  0
  1  2  2  0
  2  3  1  0
  3  4  1  0
  4  5  1  0
  5  6  1  0
  6  7  2  0
  6  8  1  0
  8  9  1  0
  9 10  1  0
 10 11  1  0
 11 12  2  0
 12 13  1  0
 13 14  1  0
 14 15  2  0
 14 16  2  0
 14 17  1  0
 17 18  1  0
 18 19  1  0
 19 20  1  0
 13 21  2  0
 21 22  1  0
  5 23  1  0
 23 24  1  0
 24  2  1  0
 22 10  2  0
 20 18  1  0
  1 25  1  0
  1 26  1  0
  3 27  1  0
  3 28  1  0
  4 29  1  0
  4 30  1  0
  8 31  1  0
  9 32  1  0
  9 33  1  0
 11 34  1  0
 12 35  1  0
 17 36  1  0
 18 37  1  0
 19 38  1  0
 19 39  1  0
 20 40  1  0
 20 41  1  0
 21 42  1  0
 22 43  1  0
 23 44  1  0
 23 45  1  0
 24 46  1  0
 24 47  1  0
M  END
$$$$
OCNT-2314969
     RDKit          3D

 50 52  0  0  0  0  0  0  0  0999 V2000
   -4.8130    2.9623    1.3567 C   0  0  0  0  0  0  0  0  0  0  0  0
   -4.2415    1.6261    0.9301 C   0  0  0  0  0  0  0  0  0  0  0  0
   -3.1695    1.8520    0.0200 O   0  0  0  0  0  0  0  0  0  0  0  0
   -1.8500    1.4624    0.4597 C   0  0  0  0  0  0  0  0  0  0  0  0
   -0.6848    2.0099   -0.3930 C   0  0  0  0  0  0  0  0  0  0  0  0
    0.0941    0.7267   -0.0060 C   0  0  0  0  0  0  0  0  0  0  0  0
    0.9109    0.2416   -1.1358 N   0  0  0  0  0  0  0  0  0  0  0  0
    1.8473    1.2770   -1.5867 C   0  0  0  0  0  0  0  0  0  0  0  0
    1.6307   -1.0044   -0.7744 C   0  0  0  0  0  0  0  0  0  0  0  0
    2.7590   -0.8213    0.2546 C   0  0  0  0  0  0  0  0  0  0  0  0
    2.5126   -0.6942    1.4506 O   0  0  0  0  0  0  0  0  0  0  0  0
    4.0070   -0.8184   -0.3349 N   0  0  0  0  0  0  0  0  0  0  0  0
    5.2197   -0.6648    0.2840 C   0  0  0  0  0  0  0  0  0  0  0  0
    6.3314   -0.6691   -0.4149 N   0  0  0  0  0  0  0  0  0  0  0  0
    7.4089   -0.4963    0.4329 C   0  0  0  0  0  0  0  0  0  0  0  0
    7.0960   -0.3607    1.7675 C   0  0  0  0  0  0  0  0  0  0  0  0
    5.3974   -0.4581    1.9646 S   0  0  0  0  0  0  0  0  0  0  0  0
   -1.3262    0.0099    0.0780 C   0  0  0  0  0  0  0  0  0  0  0  0
   -1.4107   -0.9786    1.2600 C   0  0  0  0  0  0  0  0  0  0  0  0
   -2.6634   -1.8405    1.1648 C   0  0  0  0  0  0  0  0  0  0  0  0
   -2.6568   -2.7107   -0.0920 C   0  0  0  0  0  0  0  0  0  0  0  0
   -1.9305   -2.0636   -1.2719 C   0  0  0  0  0  0  0  0  0  0  0  0
   -1.9902   -0.5417   -1.2108 C   0  0  0  0  0  0  0  0  0  0  0  0
   -5.1591    3.5302    0.4872 H   0  0  0  0  0  0  0  0  0  0  0  0
   -4.0467    3.5695    1.8498 H   0  0  0  0  0  0  0  0  0  0  0  0
   -5.6518    2.8253    2.0449 H   0  0  0  0  0  0  0  0  0  0  0  0
   -5.0044    1.0350    0.4144 H   0  0  0  0  0  0  0  0  0  0  0  0
   -3.9071    1.0608    1.8059 H   0  0  0  0  0  0  0  0  0  0  0  0
   -1.7050    1.7265    1.5181 H   0  0  0  0  0  0  0  0  0  0  0  0
   -0.2468    2.9451   -0.0315 H   0  0  0  0  0  0  0  0  0  0  0  0
   -0.9449    2.1357   -1.4512 H   0  0  0  0  0  0  0  0  0  0  0  0
    0.6147    0.8377    0.9532 H   0  0  0  0  0  0  0  0  0  0  0  0
    2.4427    1.6928   -0.7667 H   0  0  0  0  0  0  0  0  0  0  0  0
    2.5290    0.8781   -2.3462 H   0  0  0  0  0  0  0  0  0  0  0  0
    1.3178    2.1035   -2.0709 H   0  0  0  0  0  0  0  0  0  0  0  0
    2.0344   -1.4477   -1.6941 H   0  0  0  0  0  0  0  0  0  0  0  0
    0.9534   -1.7619   -0.3733 H   0  0  0  0  0  0  0  0  0  0  0  0
    4.0916   -0.9196   -1.3366 H   0  0  0  0  0  0  0  0  0  0  0  0
    8.4109   -0.4760    0.0216 H   0  0  0  0  0  0  0  0  0  0  0  0
    7.7588   -0.2157    2.6078 H   0  0  0  0  0  0  0  0  0  0  0  0
   -1.4021   -0.4447    2.2174 H   0  0  0  0  0  0  0  0  0  0  0  0
   -0.5342   -1.6355    1.2711 H   0  0  0  0  0  0  0  0  0  0  0  0
   -2.7509   -2.4801    2.0503 H   0  0  0  0  0  0  0  0  0  0  0  0
   -3.5531   -1.2019    1.1527 H   0  0  0  0  0  0  0  0  0  0  0  0
   -3.6937   -2.9342   -0.3702 H   0  0  0  0  0  0  0  0  0  0  0  0
   -2.1843   -3.6762    0.1258 H   0  0  0  0  0  0  0  0  0  0  0  0
   -0.8901   -2.4003   -1.2827 H   0  0  0  0  0  0  0  0  0  0  0  0
   -2.3742   -2.4194   -2.2096 H   0  0  0  0  0  0  0  0  0  0  0  0
   -3.0486   -0.2561   -1.2451 H   0  0  0  0  0  0  0  0  0  0  0  0
   -1.5348   -0.1165   -2.1112 H   0  0  0  0  0  0  0  0  0  0  0  0
  1  2  1  0
  2  3  1  0
  3  4  1  0
  4  5  1  0
  5  6  1  0
  6  7  1  0
  7  8  1  0
  7  9  1  0
  9 10  1  0
 10 11  2  0
 10 12  1  0
 12 13  1  0
 13 14  2  0
 14 15  1  0
 15 16  2  0
 16 17  1  0
  6 18  1  0
 18 19  1  0
 19 20  1  0
 20 21  1  0
 21 22  1  0
 22 23  1  0
 18  4  1  0
 17 13  1  0
 23 18  1  0
  1 24  1  0
  1 25  1  0
  1 26  1  0
  2 27  1  0
  2 28  1  0
  4 29  1  0
  5 30  1  0
  5 31  1  0
  6 32  1  0
  8 33  1  0
  8 34  1  0
  8 35  1  0
  9 36  1  0
  9 37  1  0
 12 38  1  0
 15 39  1  0
 16 40  1  0
 19 41  1  0
 19 42  1  0
 20 43  1  0
 20 44  1  0
 21 45  1  0
 21 46  1  0
 22 47  1  0
 22 48  1  0
 23 49  1  0
 23 50  1  0
M  END
$$$$
OCNT-2314976
     RDKit          3D

 45 47  0  0  0  0  0  0  0  0999 V2000
   -3.4096   -3.4511   -0.1341 C   0  0  0  0  0  0  0  0  0  0  0  0
   -2.8332   -2.0671   -0.0830 C   0  0  0  0  0  0  0  0  0  0  0  0
   -2.2818   -1.4864   -1.2303 C   0  0  0  0  0  0  0  0  0  0  0  0
   -1.7758   -0.1850   -1.1930 C   0  0  0  0  0  0  0  0  0  0  0  0
   -1.8179    0.5638   -0.0067 C   0  0  0  0  0  0  0  0  0  0  0  0
   -1.2126    1.9728    0.0362 C   0  0  0  0  0  0  0  0  0  0  0  0
    0.1068    1.9202    0.8759 C   0  0  0  0  0  0  0  0  0  0  0  0
    1.0317    0.8753    0.4437 N   0  0  0  0  0  0  0  0  0  0  0  0
    2.3921    1.0251    0.5404 C   0  0  0  0  0  0  0  0  0  0  0  0
    2.9460    2.0618    0.8877 O   0  0  0  0  0  0  0  0  0  0  0  0
    3.1868   -0.2063    0.2377 C   0  0  0  0  0  0  0  0  0  0  0  0
    2.7854   -1.1023   -0.6850 C   0  0  0  0  0  0  0  0  0  0  0  0
    3.5732   -2.2192   -0.9509 N   0  0  0  0  0  0  0  0  0  0  0  0
    3.3333   -3.2268   -1.8252 N   0  0  0  0  0  0  0  0  0  0  0  0
    4.4009   -4.0085   -1.6574 C   0  0  0  0  0  0  0  0  0  0  0  0
    5.3149   -3.5834   -0.7407 N   0  0  0  0  0  0  0  0  0  0  0  0
    4.7891   -2.4610   -0.3060 C   0  0  0  0  0  0  0  0  0  0  0  0
    5.2309   -1.5063    0.6495 C   0  0  0  0  0  0  0  0  0  0  0  0
    4.4698   -0.4255    0.9074 C   0  0  0  0  0  0  0  0  0  0  0  0
   -2.2056    2.9751    0.5214 N   0  0  0  0  0  0  0  0  0  0  0  0
   -1.6150    4.3029    0.7131 C   0  0  0  0  0  0  0  0  0  0  0  0
   -3.3359    3.0921   -0.4120 C   0  0  0  0  0  0  0  0  0  0  0  0
   -2.3906   -0.0157    1.1358 C   0  0  0  0  0  0  0  0  0  0  0  0
   -2.8978   -1.3161    1.0956 C   0  0  0  0  0  0  0  0  0  0  0  0
   -3.3257   -3.9453    0.8396 H   0  0  0  0  0  0  0  0  0  0  0  0
   -4.4652   -3.4066   -0.4189 H   0  0  0  0  0  0  0  0  0  0  0  0
   -2.8725   -4.0711   -0.8597 H   0  0  0  0  0  0  0  0  0  0  0  0
   -2.2448   -2.0451   -2.1632 H   0  0  0  0  0  0  0  0  0  0  0  0
   -1.3477    0.2401   -2.0983 H   0  0  0  0  0  0  0  0  0  0  0  0
   -0.9183    2.2493   -0.9870 H   0  0  0  0  0  0  0  0  0  0  0  0
    0.6301    2.8801    0.8162 H   0  0  0  0  0  0  0  0  0  0  0  0
   -0.1093    1.7272    1.9336 H   0  0  0  0  0  0  0  0  0  0  0  0
    0.6524   -0.0633    0.4007 H   0  0  0  0  0  0  0  0  0  0  0  0
    1.8788   -1.0256   -1.2695 H   0  0  0  0  0  0  0  0  0  0  0  0
    4.5180   -4.9234   -2.2249 H   0  0  0  0  0  0  0  0  0  0  0  0
    6.1816   -1.6654    1.1463 H   0  0  0  0  0  0  0  0  0  0  0  0
    4.7974    0.3232    1.6256 H   0  0  0  0  0  0  0  0  0  0  0  0
   -0.8981    4.3011    1.5402 H   0  0  0  0  0  0  0  0  0  0  0  0
   -2.3831    5.0325    0.9961 H   0  0  0  0  0  0  0  0  0  0  0  0
   -1.1155    4.6672   -0.1917 H   0  0  0  0  0  0  0  0  0  0  0  0
   -3.8845    2.1496   -0.5068 H   0  0  0  0  0  0  0  0  0  0  0  0
   -4.0645    3.8227   -0.0415 H   0  0  0  0  0  0  0  0  0  0  0  0
   -3.0128    3.4084   -1.4106 H   0  0  0  0  0  0  0  0  0  0  0  0
   -2.4539    0.5532    2.0616 H   0  0  0  0  0  0  0  0  0  0  0  0
   -3.3478   -1.7374    1.9920 H   0  0  0  0  0  0  0  0  0  0  0  0
  1  2  1  0
  2  3  1  0
  3  4  2  0
  4  5  1  0
  5  6  1  0
  6  7  1  0
  7  8  1  0
  8  9  1  0
  9 10  2  0
  9 11  1  0
 11 12  2  0
 12 13  1  0
 13 14  1  0
 14 15  2  0
 15 16  1  0
 16 17  2  0
 17 18  1  0
 18 19  2  0
  6 20  1  0
 20 21  1  0
 20 22  1  0
  5 23  2  0
 23 24  1  0
 24  2  2  0
 19 11  1  0
 17 13  1  0
  1 25  1  0
  1 26  1  0
  1 27  1  0
  3 28  1  0
  4 29  1  0
  6 30  1  0
  7 31  1  0
  7 32  1  0
  8 33  1  0
 12 34  1  0
 15 35  1  0
 18 36  1  0
 19 37  1  0
 21 38  1  0
 21 39  1  0
 21 40  1  0
 22 41  1  0
 22 42  1  0
 22 43  1  0
 23 44  1  0
 24 45  1  0
M  END
$$$$
OCNT-2314989
     RDKit          3D

 48 51  0  0  0  0  0  0  0  0999 V2000
   -5.0032    0.6504    2.9587 C   0  0  0  0  0  0  0  0  0  0  0  0
   -5.1094   -0.5205    1.9920 C   0  0  0  0  0  0  0  0  0  0  0  0
   -4.4890   -0.2243    0.6951 N   0  0  0  0  0  0  0  0  0  0  0  0
   -5.2849    0.5940   -0.2255 C   0  0  0  0  0  0  0  0  0  0  0  0
   -4.8201    0.3908   -1.6559 C   0  0  0  0  0  0  0  0  0  0  0  0
   -3.3750    0.8411   -1.7720 C   0  0  0  0  0  0  0  0  0  0  0  0
   -2.5222    0.2512   -0.6759 C   0  0  0  0  0  0  0  0  0  0  0  0
   -1.1245    0.2422   -0.8620 C   0  0  0  0  0  0  0  0  0  0  0  0
   -0.2722   -0.2855    0.1093 C   0  0  0  0  0  0  0  0  0  0  0  0
    1.1801   -0.3167   -0.0693 C   0  0  0  0  0  0  0  0  0  0  0  0
    2.0520    0.1291    0.8180 N   0  0  0  0  0  0  0  0  0  0  0  0
    3.2907   -0.0596    0.2697 C   0  0  0  0  0  0  0  0  0  0  0  0
    4.5467    0.2648    0.7970 C   0  0  0  0  0  0  0  0  0  0  0  0
    5.6760   -0.0128    0.0163 C   0  0  0  0  0  0  0  0  0  0  0  0
    7.2752    0.4021    0.6564 S   0  0  0  0  0  0  0  0  0  0  0  0
    7.3659    2.0447    0.2932 N   0  0  0  0  0  0  0  0  0  0  0  0
    8.2780   -0.2763   -0.1299 O   0  0  0  0  0  0  0  0  0  0  0  0
    7.2290    0.3172    2.0974 O   0  0  0  0  0  0  0  0  0  0  0  0
    5.5705   -0.6183   -1.2404 C   0  0  0  0  0  0  0  0  0  0  0  0
    4.3188   -0.9554   -1.7667 C   0  0  0  0  0  0  0  0  0  0  0  0
    3.1965   -0.6576   -0.9825 C   0  0  0  0  0  0  0  0  0  0  0  0
    1.8437   -0.8503   -1.1586 N   0  0  0  0  0  0  0  0  0  0  0  0
    1.2398   -1.5507   -2.2679 C   0  0  0  0  0  0  0  0  0  0  0  0
   -0.8332   -0.7705    1.2882 C   0  0  0  0  0  0  0  0  0  0  0  0
   -2.2214   -0.7530    1.4803 C   0  0  0  0  0  0  0  0  0  0  0  0
   -3.1030   -0.2330    0.5187 C   0  0  0  0  0  0  0  0  0  0  0  0
   -5.4929    1.5426    2.5552 H   0  0  0  0  0  0  0  0  0  0  0  0
   -3.9618    0.9096    3.1716 H   0  0  0  0  0  0  0  0  0  0  0  0
   -5.4890    0.4001    3.9071 H   0  0  0  0  0  0  0  0  0  0  0  0
   -6.1718   -0.7485    1.8380 H   0  0  0  0  0  0  0  0  0  0  0  0
   -4.6919   -1.4306    2.4363 H   0  0  0  0  0  0  0  0  0  0  0  0
   -6.3421    0.3102   -0.1610 H   0  0  0  0  0  0  0  0  0  0  0  0
   -5.2165    1.6521    0.0575 H   0  0  0  0  0  0  0  0  0  0  0  0
   -5.4477    0.9617   -2.3489 H   0  0  0  0  0  0  0  0  0  0  0  0
   -4.9080   -0.6683   -1.9307 H   0  0  0  0  0  0  0  0  0  0  0  0
   -3.3171    1.9346   -1.7053 H   0  0  0  0  0  0  0  0  0  0  0  0
   -2.9883    0.5447   -2.7542 H   0  0  0  0  0  0  0  0  0  0  0  0
   -0.7100    0.6682   -1.7726 H   0  0  0  0  0  0  0  0  0  0  0  0
    4.6201    0.7168    1.7805 H   0  0  0  0  0  0  0  0  0  0  0  0
    7.4014    2.5721    1.1676 H   0  0  0  0  0  0  0  0  0  0  0  0
    6.6107    2.3651   -0.3119 H   0  0  0  0  0  0  0  0  0  0  0  0
    6.4654   -0.8383   -1.8220 H   0  0  0  0  0  0  0  0  0  0  0  0
    4.2342   -1.4284   -2.7397 H   0  0  0  0  0  0  0  0  0  0  0  0
    1.9590   -2.2551   -2.6927 H   0  0  0  0  0  0  0  0  0  0  0  0
    0.9481   -0.8139   -3.0201 H   0  0  0  0  0  0  0  0  0  0  0  0
    0.3716   -2.1140   -1.9174 H   0  0  0  0  0  0  0  0  0  0  0  0
   -0.1914   -1.1681    2.0722 H   0  0  0  0  0  0  0  0  0  0  0  0
   -2.5873   -1.1558    2.4189 H   0  0  0  0  0  0  0  0  0  0  0  0
  1  2  1  0
  2  3  1  0
  3  4  1  0
  4  5  1  0
  5  6  1  0
  6  7  1  0
  7  8  1  0
  8  9  2  0
  9 10  1  0
 10 11  2  0
 11 12  1  0
 12 13  2  0
 13 14  1  0
 14 15  1  0
 15 16  1  0
 15 17  2  0
 15 18  2  0
 14 19  2  0
 19 20  1  0
 20 21  2  0
 21 22  1  0
 22 23  1  0
  9 24  1  0
 24 25  2  0
 25 26  1  0
 26  3  1  0
 26  7  2  0
 22 10  1  0
 21 12  1  0
  1 27  1  0
  1 28  1  0
  1 29  1  0
  2 30  1  0
  2 31  1  0
  4 32  1  0
  4 33  1  0
  5 34  1  0
  5 35  1  0
  6 36  1  0
  6 37  1  0
  8 38  1  0
 13 39  1  0
 16 40  1  0
 16 41  1  0
 19 42  1  0
 20 43  1  0
 23 44  1  0
 23 45  1  0
 23 46  1  0
 24 47  1  0
 25 48  1  0
M  END
$$$$
OCNT-2314990
     RDKit          3D

  0  0  0  0  0  0  0  0  0  0999 V3000
M  V30 BEGIN CTAB
M  V30 COUNTS 38 40 0 0 0
M  V30 BEGIN ATOM
M  V30 1 O -2.067737 -0.015122 2.370197 0
M  V30 2 C -1.922324 0.001137 1.151547 0
M  V30 3 N -0.761439 -0.388266 0.514181 0
M  V30 4 C 0.451165 -0.681912 1.275157 0 CFG=1
M  V30 5 C 0.326182 -1.824687 2.288202 0
M  V30 6 N 1.716055 -2.202005 2.564712 0
M  V30 7 C 2.453916 -2.059502 1.305223 0
M  V30 8 C 1.581158 -1.205584 0.370116 0 CFG=2
M  V30 9 C 2.324752 -0.126033 -0.385551 0
M  V30 10 C 2.340436 -0.138825 -1.788821 0
M  V30 11 C 3.011553 0.855772 -2.502854 0
M  V30 12 C 3.675931 1.874638 -1.824544 0
M  V30 13 C 3.672650 1.898207 -0.432165 0
M  V30 14 C 3.002862 0.904200 0.283327 0
M  V30 15 C -3.033279 0.498963 0.304420 0
M  V30 16 C -3.113911 0.220829 -1.065267 0
M  V30 17 C -4.181227 0.724547 -1.806405 0
M  V30 18 C -5.135916 1.483929 -1.151304 0
M  V30 19 N -5.097498 1.756456 0.168848 0
M  V30 20 C -4.060391 1.254000 0.873157 0
M  V30 21 O -4.111043 1.560870 2.204417 0
M  V30 22 H -0.598712 0.008901 -0.402782 0
M  V30 23 H 0.737209 0.239318 1.799056 0
M  V30 24 H -0.177590 -1.517376 3.208634 0
M  V30 25 H -0.222443 -2.673605 1.861918 0
M  V30 26 H 1.769973 -3.154255 2.922954 0
M  V30 27 H 2.625101 -3.044262 0.854328 0
M  V30 28 H 3.435495 -1.619877 1.508286 0
M  V30 29 H 1.131310 -1.893195 -0.362605 0
M  V30 30 H 1.834405 -0.927402 -2.341610 0
M  V30 31 H 3.019578 0.833974 -3.589662 0
M  V30 32 H 4.199834 2.648151 -2.380022 0
M  V30 33 H 4.194016 2.690494 0.099363 0
M  V30 34 H 3.019005 0.941717 1.371462 0
M  V30 35 H -2.376986 -0.399204 -1.565419 0
M  V30 36 H -4.271371 0.524761 -2.868857 0
M  V30 37 H -5.986553 1.900786 -1.683607 0
M  V30 38 H -3.404167 1.049463 2.650567 0
M  V30 END ATOM
M  V30 BEGIN BOND
M  V30 1 2 1 2
M  V30 2 1 2 3
M  V30 3 1 3 4
M  V30 4 1 4 5
M  V30 5 1 5 6
M  V30 6 1 6 7
M  V30 7 1 7 8
M  V30 8 1 8 9
M  V30 9 2 9 10
M  V30 10 1 10 11
M  V30 11 2 11 12
M  V30 12 1 12 13
M  V30 13 2 13 14
M  V30 14 1 2 15
M  V30 15 1 15 16
M  V30 16 2 16 17
M  V30 17 1 17 18
M  V30 18 2 18 19
M  V30 19 1 19 20
M  V30 20 1 20 21
M  V30 21 1 8 4
M  V30 22 1 14 9
M  V30 23 2 20 15
M  V30 24 1 3 22
M  V30 25 1 4 23 CFG=1
M  V30 26 1 5 24
M  V30 27 1 5 25
M  V30 28 1 6 26
M  V30 29 1 7 27
M  V30 30 1 7 28
M  V30 31 1 8 29 CFG=3
M  V30 32 1 10 30
M  V30 33 1 11 31
M  V30 34 1 12 32
M  V30 35 1 13 33
M  V30 36 1 14 34
M  V30 37 1 16 35
M  V30 38 1 17 36
M  V30 39 1 18 37
M  V30 40 1 21 38
M  V30 END BOND
M  V30 BEGIN COLLECTION
M  V30 MDLV30/STERAC1 ATOMS=(2 4 8)
M  V30 END COLLECTION
M  V30 END CTAB
M  END
>  <_CXSMILES_Data>  (920) 
|&1:3,7|

$$$$
OCNT-2315001
     RDKit          3D

 38 40  0  0  0  0  0  0  0  0999 V2000
   -2.8359   -0.1362   -2.2228 C   0  0  0  0  0  0  0  0  0  0  0  0
   -2.2283    0.7949   -1.1689 C   0  0  0  0  0  0  0  0  0  0  0  0
   -0.8866    0.3764   -0.7973 N   0  0  0  0  0  0  0  0  0  0  0  0
    0.1903    0.5769   -1.6206 C   0  0  0  0  0  0  0  0  0  0  0  0
    0.1247    1.0986   -2.7269 O   0  0  0  0  0  0  0  0  0  0  0  0
    1.5006    0.1827   -1.0446 C   0  0  0  0  0  0  0  0  0  0  0  0
    1.6448   -0.9089   -0.2809 C   0  0  0  0  0  0  0  0  0  0  0  0
    2.9880   -1.2167    0.1940 C   0  0  0  0  0  0  0  0  0  0  0  0
    3.2531   -2.4116    0.8722 C   0  0  0  0  0  0  0  0  0  0  0  0
    4.5388   -2.6777    1.3497 C   0  0  0  0  0  0  0  0  0  0  0  0
    5.5614   -1.7490    1.1596 C   0  0  0  0  0  0  0  0  0  0  0  0
    5.3011   -0.5547    0.4879 C   0  0  0  0  0  0  0  0  0  0  0  0
    4.0214   -0.2943   -0.0024 C   0  0  0  0  0  0  0  0  0  0  0  0
    3.8440    0.9094   -0.6286 O   0  0  0  0  0  0  0  0  0  0  0  0
    2.6630    1.0437   -1.4408 C   0  0  0  0  0  0  0  0  0  0  0  0
   -3.0891    0.8950    0.0789 C   0  0  0  0  0  0  0  0  0  0  0  0
   -3.4306    2.1576    0.5888 C   0  0  0  0  0  0  0  0  0  0  0  0
   -4.2004    2.2746    1.7478 C   0  0  0  0  0  0  0  0  0  0  0  0
   -4.6332    1.1322    2.4167 C   0  0  0  0  0  0  0  0  0  0  0  0
   -4.2938   -0.1281    1.9303 C   0  0  0  0  0  0  0  0  0  0  0  0
   -3.5236   -0.2472    0.7716 C   0  0  0  0  0  0  0  0  0  0  0  0
   -2.2607   -0.1018   -3.1542 H   0  0  0  0  0  0  0  0  0  0  0  0
   -3.8663    0.1538   -2.4559 H   0  0  0  0  0  0  0  0  0  0  0  0
   -2.8433   -1.1807   -1.8923 H   0  0  0  0  0  0  0  0  0  0  0  0
   -2.1450    1.7898   -1.6258 H   0  0  0  0  0  0  0  0  0  0  0  0
   -0.7298    0.1078    0.1647 H   0  0  0  0  0  0  0  0  0  0  0  0
    0.8300   -1.5775   -0.0320 H   0  0  0  0  0  0  0  0  0  0  0  0
    2.4662   -3.1433    1.0366 H   0  0  0  0  0  0  0  0  0  0  0  0
    4.7415   -3.6079    1.8748 H   0  0  0  0  0  0  0  0  0  0  0  0
    6.5604   -1.9529    1.5361 H   0  0  0  0  0  0  0  0  0  0  0  0
    6.0948    0.1731    0.3434 H   0  0  0  0  0  0  0  0  0  0  0  0
    2.3778    2.1003   -1.3823 H   0  0  0  0  0  0  0  0  0  0  0  0
    2.9480    0.8369   -2.4792 H   0  0  0  0  0  0  0  0  0  0  0  0
   -3.0971    3.0630    0.0851 H   0  0  0  0  0  0  0  0  0  0  0  0
   -4.4609    3.2588    2.1289 H   0  0  0  0  0  0  0  0  0  0  0  0
   -5.2330    1.2244    3.3184 H   0  0  0  0  0  0  0  0  0  0  0  0
   -4.6285   -1.0198    2.4542 H   0  0  0  0  0  0  0  0  0  0  0  0
   -3.2641   -1.2417    0.4160 H   0  0  0  0  0  0  0  0  0  0  0  0
  1  2  1  0
  2  3  1  0
  3  4  1  0
  4  5  2  0
  4  6  1  0
  6  7  2  0
  7  8  1  0
  8  9  2  0
  9 10  1  0
 10 11  2  0
 11 12  1  0
 12 13  2  0
 13 14  1  0
 14 15  1  0
  2 16  1  0
 16 17  2  0
 17 18  1  0
 18 19  2  0
 19 20  1  0
 20 21  2  0
 15  6  1  0
 21 16  1  0
 13  8  1  0
  1 22  1  0
  1 23  1  0
  1 24  1  0
  2 25  1  0
  3 26  1  0
  7 27  1  0
  9 28  1  0
 10 29  1  0
 11 30  1  0
 12 31  1  0
 15 32  1  0
 15 33  1  0
 17 34  1  0
 18 35  1  0
 19 36  1  0
 20 37  1  0
 21 38  1  0
M  END
$$$$
OCNT-2315017
     RDKit          3D

 42 44  0  0  0  0  0  0  0  0999 V2000
    6.3385    1.5953    1.3762 C   0  0  0  0  0  0  0  0  0  0  0  0
    5.9752    0.6077    0.2821 C   0  0  0  0  0  0  0  0  0  0  0  0
    4.8984   -0.2696    0.6754 N   0  0  0  0  0  0  0  0  0  0  0  0
    5.1538   -1.4302    1.3243 N   0  0  0  0  0  0  0  0  0  0  0  0
    3.9859   -2.0318    1.5522 N   0  0  0  0  0  0  0  0  0  0  0  0
    3.0107   -1.2295    1.0422 C   0  0  0  0  0  0  0  0  0  0  0  0
    3.5592   -0.1059    0.4758 C   0  0  0  0  0  0  0  0  0  0  0  0
    2.9263    0.9191   -0.1414 N   0  0  0  0  0  0  0  0  0  0  0  0
    1.6328    0.7660   -0.1480 C   0  0  0  0  0  0  0  0  0  0  0  0
    0.9300   -0.2998    0.4198 N   0  0  0  0  0  0  0  0  0  0  0  0
   -0.5243   -0.3500    0.2902 C   0  0  0  0  0  0  0  0  0  0  0  0
   -0.9525   -1.1530   -0.9509 C   0  0  0  0  0  0  0  0  0  0  0  0
   -0.5002   -0.4749   -2.1312 O   0  0  0  0  0  0  0  0  0  0  0  0
   -2.4733   -1.4112   -1.0198 C   0  0  0  0  0  0  0  0  0  0  0  0
   -3.3684   -0.1948   -0.8388 C   0  0  0  0  0  0  0  0  0  0  0  0
   -3.3151    0.8295   -1.8028 C   0  0  0  0  0  0  0  0  0  0  0  0
   -4.1115    1.9691   -1.6940 C   0  0  0  0  0  0  0  0  0  0  0  0
   -4.9857    2.1053   -0.6240 C   0  0  0  0  0  0  0  0  0  0  0  0
   -5.0669    1.0980    0.3353 C   0  0  0  0  0  0  0  0  0  0  0  0
   -4.2703   -0.0619    0.2458 C   0  0  0  0  0  0  0  0  0  0  0  0
   -4.4203   -1.1248    1.3148 C   0  0  0  0  0  0  0  0  0  0  0  0
   -3.2433   -1.3870    1.9484 F   0  0  0  0  0  0  0  0  0  0  0  0
   -5.3016   -0.7947    2.3002 F   0  0  0  0  0  0  0  0  0  0  0  0
   -4.8543   -2.3141    0.8139 F   0  0  0  0  0  0  0  0  0  0  0  0
    1.5805   -1.3978    1.0105 C   0  0  0  0  0  0  0  0  0  0  0  0
    0.9948   -2.3942    1.4257 O   0  0  0  0  0  0  0  0  0  0  0  0
    6.6578    1.0766    2.2864 H   0  0  0  0  0  0  0  0  0  0  0  0
    7.1567    2.2433    1.0472 H   0  0  0  0  0  0  0  0  0  0  0  0
    5.4837    2.2288    1.6358 H   0  0  0  0  0  0  0  0  0  0  0  0
    5.6666    1.1372   -0.6255 H   0  0  0  0  0  0  0  0  0  0  0  0
    6.8377   -0.0168    0.0245 H   0  0  0  0  0  0  0  0  0  0  0  0
    0.9930    1.5255   -0.6270 H   0  0  0  0  0  0  0  0  0  0  0  0
   -0.9372   -0.8057    1.1962 H   0  0  0  0  0  0  0  0  0  0  0  0
   -0.8906    0.6806    0.2240 H   0  0  0  0  0  0  0  0  0  0  0  0
   -0.4453   -2.1256   -0.9477 H   0  0  0  0  0  0  0  0  0  0  0  0
   -0.6128   -1.0898   -2.8787 H   0  0  0  0  0  0  0  0  0  0  0  0
   -2.7210   -1.8507   -1.9954 H   0  0  0  0  0  0  0  0  0  0  0  0
   -2.7158   -2.1789   -0.2794 H   0  0  0  0  0  0  0  0  0  0  0  0
   -2.6459    0.7492   -2.6579 H   0  0  0  0  0  0  0  0  0  0  0  0
   -4.0495    2.7486   -2.4496 H   0  0  0  0  0  0  0  0  0  0  0  0
   -5.6093    2.9920   -0.5388 H   0  0  0  0  0  0  0  0  0  0  0  0
   -5.7665    1.2212    1.1621 H   0  0  0  0  0  0  0  0  0  0  0  0
  1  2  1  0
  2  3  1  0
  3  4  1  0
  4  5  2  0
  5  6  1  0
  6  7  2  0
  7  8  1  0
  8  9  2  0
  9 10  1  0
 10 11  1  0
 11 12  1  0
 12 13  1  0
 12 14  1  0
 14 15  1  0
 15 16  2  0
 16 17  1  0
 17 18  2  0
 18 19  1  0
 19 20  2  0
 20 21  1  0
 21 22  1  0
 21 23  1  0
 21 24  1  0
 10 25  1  0
 25 26  2  0
  7  3  1  0
 20 15  1  0
 25  6  1  0
  1 27  1  0
  1 28  1  0
  1 29  1  0
  2 30  1  0
  2 31  1  0
  9 32  1  0
 11 33  1  0
 11 34  1  0
 12 35  1  0
 13 36  1  0
 14 37  1  0
 14 38  1  0
 16 39  1  0
 17 40  1  0
 18 41  1  0
 19 42  1  0
M  END
$$$$
OCNT-2315024
     RDKit          3D

 44 47  0  0  0  0  0  0  0  0999 V2000
    5.5106    0.1838    1.3926 C   0  0  0  0  0  0  0  0  0  0  0  0
    5.5223   -0.7948    0.2190 C   0  0  0  0  0  0  0  0  0  0  0  0
    5.5079   -2.2473    0.6934 C   0  0  0  0  0  0  0  0  0  0  0  0
    4.4541   -0.5193   -0.7346 N   0  0  0  0  0  0  0  0  0  0  0  0
    4.7767   -0.1545   -2.0050 N   0  0  0  0  0  0  0  0  0  0  0  0
    3.5902    0.0375   -2.5949 C   0  0  0  0  0  0  0  0  0  0  0  0
    2.5266   -0.2138   -1.7242 C   0  0  0  0  0  0  0  0  0  0  0  0
    3.0994   -0.5753   -0.5306 C   0  0  0  0  0  0  0  0  0  0  0  0
    2.4603   -0.9061    0.6171 N   0  0  0  0  0  0  0  0  0  0  0  0
    1.1658   -0.8589    0.5054 C   0  0  0  0  0  0  0  0  0  0  0  0
    0.4556   -0.5429   -0.6494 N   0  0  0  0  0  0  0  0  0  0  0  0
   -0.9974   -0.5138   -0.6227 C   0  0  0  0  0  0  0  0  0  0  0  0
   -1.4975    0.8726   -0.2003 C   0  0  0  0  0  0  0  0  0  0  0  0
   -0.7426    1.6747    0.3550 O   0  0  0  0  0  0  0  0  0  0  0  0
   -2.8354    1.1704   -0.4280 N   0  0  0  0  0  0  0  0  0  0  0  0
   -3.3535    2.4664    0.0428 C   0  0  0  0  0  0  0  0  0  0  0  0
   -4.0779    2.3024    1.3906 C   0  0  0  0  0  0  0  0  0  0  0  0
   -4.9624    1.0912    1.3200 C   0  0  0  0  0  0  0  0  0  0  0  0
   -4.8622    0.1087    0.3486 C   0  0  0  0  0  0  0  0  0  0  0  0
   -5.8283   -0.9223    0.5646 C   0  0  0  0  0  0  0  0  0  0  0  0
   -6.6038   -0.6838    1.6798 C   0  0  0  0  0  0  0  0  0  0  0  0
   -6.1753    0.7755    2.4656 S   0  0  0  0  0  0  0  0  0  0  0  0
   -3.8663    0.1816   -0.7766 C   0  0  0  0  0  0  0  0  0  0  0  0
    1.0973   -0.1695   -1.8341 C   0  0  0  0  0  0  0  0  0  0  0  0
    0.5152    0.1454   -2.8675 O   0  0  0  0  0  0  0  0  0  0  0  0
    6.3928    0.0366    2.0247 H   0  0  0  0  0  0  0  0  0  0  0  0
    5.5195    1.2203    1.0376 H   0  0  0  0  0  0  0  0  0  0  0  0
    4.6249    0.0557    2.0233 H   0  0  0  0  0  0  0  0  0  0  0  0
    6.4618   -0.6384   -0.3283 H   0  0  0  0  0  0  0  0  0  0  0  0
    4.6221   -2.4720    1.2963 H   0  0  0  0  0  0  0  0  0  0  0  0
    6.3900   -2.4602    1.3066 H   0  0  0  0  0  0  0  0  0  0  0  0
    5.5148   -2.9368   -0.1580 H   0  0  0  0  0  0  0  0  0  0  0  0
    3.5581    0.3489   -3.6310 H   0  0  0  0  0  0  0  0  0  0  0  0
    0.5323   -1.0915    1.3770 H   0  0  0  0  0  0  0  0  0  0  0  0
   -1.3789   -0.7581   -1.6186 H   0  0  0  0  0  0  0  0  0  0  0  0
   -1.3617   -1.2467    0.1050 H   0  0  0  0  0  0  0  0  0  0  0  0
   -2.5497    3.2040    0.1362 H   0  0  0  0  0  0  0  0  0  0  0  0
   -4.0466    2.8369   -0.7232 H   0  0  0  0  0  0  0  0  0  0  0  0
   -4.6513    3.2075    1.6176 H   0  0  0  0  0  0  0  0  0  0  0  0
   -3.3406    2.1546    2.1891 H   0  0  0  0  0  0  0  0  0  0  0  0
   -5.9552   -1.7954   -0.0643 H   0  0  0  0  0  0  0  0  0  0  0  0
   -7.4046   -1.2947    2.0738 H   0  0  0  0  0  0  0  0  0  0  0  0
   -4.3629    0.5283   -1.6896 H   0  0  0  0  0  0  0  0  0  0  0  0
   -3.4443   -0.8070   -0.9640 H   0  0  0  0  0  0  0  0  0  0  0  0
  1  2  1  0
  2  3  1  0
  2  4  1  0
  4  5  1  0
  5  6  2  0
  6  7  1  0
  7  8  2  0
  8  9  1  0
  9 10  2  0
 10 11  1  0
 11 12  1  0
 12 13  1  0
 13 14  2  0
 13 15  1  0
 15 16  1  0
 16 17  1  0
 17 18  1  0
 18 19  2  0
 19 20  1  0
 20 21  2  0
 21 22  1  0
 19 23  1  0
 11 24  1  0
 24 25  2  0
  8  4  1  0
 23 15  1  0
 24  7  1  0
 22 18  1  0
  1 26  1  0
  1 27  1  0
  1 28  1  0
  2 29  1  0
  3 30  1  0
  3 31  1  0
  3 32  1  0
  6 33  1  0
 10 34  1  0
 12 35  1  0
 12 36  1  0
 16 37  1  0
 16 38  1  0
 17 39  1  0
 17 40  1  0
 20 41  1  0
 21 42  1  0
 23 43  1  0
 23 44  1  0
M  END
$$$$
OCNT-2315030
     RDKit          3D

 40 43  0  0  0  0  0  0  0  0999 V2000
   -0.2073   -1.1636   -0.1985 O   0  0  0  0  0  0  0  0  0  0  0  0
   -1.0026   -0.2462   -0.0149 C   0  0  0  0  0  0  0  0  0  0  0  0
   -2.3518   -0.4534   -0.1772 N   0  0  0  0  0  0  0  0  0  0  0  0
   -3.3256    0.5078    0.0040 C   0  0  0  0  0  0  0  0  0  0  0  0
   -4.7703    0.1889   -0.1959 C   0  0  0  0  0  0  0  0  0  0  0  0
   -5.2238   -1.0762   -0.5719 C   0  0  0  0  0  0  0  0  0  0  0  0
   -6.5926   -1.2937   -0.7385 C   0  0  0  0  0  0  0  0  0  0  0  0
   -7.4814   -0.2501   -0.5282 C   0  0  0  0  0  0  0  0  0  0  0  0
   -6.9621    0.9748   -0.1578 C   0  0  0  0  0  0  0  0  0  0  0  0
   -5.6422    1.2114    0.0101 N   0  0  0  0  0  0  0  0  0  0  0  0
   -2.9272    1.7413    0.3670 C   0  0  0  0  0  0  0  0  0  0  0  0
   -1.5274    2.0464    0.5597 C   0  0  0  0  0  0  0  0  0  0  0  0
   -0.5658    1.1200    0.3868 C   0  0  0  0  0  0  0  0  0  0  0  0
    0.8595    1.5260    0.6085 C   0  0  0  0  0  0  0  0  0  0  0  0
    1.1188    2.6816    0.9395 O   0  0  0  0  0  0  0  0  0  0  0  0
    1.7859    0.5299    0.4141 N   0  0  0  0  0  0  0  0  0  0  0  0
    3.1986    0.5953    0.5434 C   0  0  0  0  0  0  0  0  0  0  0  0
    3.8836    1.7594    0.9103 C   0  0  0  0  0  0  0  0  0  0  0  0
    5.2730    1.7554    1.0190 C   0  0  0  0  0  0  0  0  0  0  0  0
    5.9856    0.5892    0.7621 C   0  0  0  0  0  0  0  0  0  0  0  0
    5.3104   -0.5840    0.3935 C   0  0  0  0  0  0  0  0  0  0  0  0
    6.0084   -1.7706    0.1300 C   0  0  0  0  0  0  0  0  0  0  0  0
    5.3145   -2.9175   -0.2330 C   0  0  0  0  0  0  0  0  0  0  0  0
    3.9394   -2.8396   -0.3207 C   0  0  0  0  0  0  0  0  0  0  0  0
    3.2330   -1.7155   -0.0746 N   0  0  0  0  0  0  0  0  0  0  0  0
    3.9022   -0.5935    0.2797 C   0  0  0  0  0  0  0  0  0  0  0  0
   -2.5926   -1.3946   -0.4491 H   0  0  0  0  0  0  0  0  0  0  0  0
   -4.5495   -1.9059   -0.7416 H   0  0  0  0  0  0  0  0  0  0  0  0
   -6.9589   -2.2741   -1.0311 H   0  0  0  0  0  0  0  0  0  0  0  0
   -8.5499   -0.3872   -0.6495 H   0  0  0  0  0  0  0  0  0  0  0  0
   -7.6108    1.8278    0.0202 H   0  0  0  0  0  0  0  0  0  0  0  0
   -3.6355    2.5501    0.5283 H   0  0  0  0  0  0  0  0  0  0  0  0
   -1.2863    3.0655    0.8526 H   0  0  0  0  0  0  0  0  0  0  0  0
    1.4543   -0.4020    0.1376 H   0  0  0  0  0  0  0  0  0  0  0  0
    3.3614    2.6873    1.1183 H   0  0  0  0  0  0  0  0  0  0  0  0
    5.7954    2.6652    1.3047 H   0  0  0  0  0  0  0  0  0  0  0  0
    7.0694    0.6009    0.8509 H   0  0  0  0  0  0  0  0  0  0  0  0
    7.0922   -1.8058    0.2062 H   0  0  0  0  0  0  0  0  0  0  0  0
    5.8331   -3.8460   -0.4414 H   0  0  0  0  0  0  0  0  0  0  0  0
    3.3446   -3.7046   -0.6002 H   0  0  0  0  0  0  0  0  0  0  0  0
  1  2  2  0
  2  3  1  0
  3  4  1  0
  4  5  1  0
  5  6  2  0
  6  7  1  0
  7  8  2  0
  8  9  1  0
  9 10  2  0
  4 11  2  0
 11 12  1  0
 12 13  2  0
 13 14  1  0
 14 15  2  0
 14 16  1  0
 16 17  1  0
 17 18  1  0
 18 19  2  0
 19 20  1  0
 20 21  2  0
 21 22  1  0
 22 23  2  0
 23 24  1  0
 24 25  2  0
 25 26  1  0
 13  2  1  0
 26 17  2  0
 10  5  1  0
 26 21  1  0
  3 27  1  0
  6 28  1  0
  7 29  1  0
  8 30  1  0
  9 31  1  0
 11 32  1  0
 12 33  1  0
 16 34  1  0
 18 35  1  0
 19 36  1  0
 20 37  1  0
 22 38  1  0
 23 39  1  0
 24 40  1  0
M  END
$$$$
OCNT-2315032
     RDKit          3D

 44 46  0  0  0  0  0  0  0  0999 V2000
    4.6734    0.0418    3.5306 F   0  0  0  0  0  0  0  0  0  0  0  0
    4.4247   -1.0310    2.7353 C   0  0  0  0  0  0  0  0  0  0  0  0
    5.3150   -1.9906    3.0989 F   0  0  0  0  0  0  0  0  0  0  0  0
    4.6462   -0.6587    1.2779 C   0  0  0  0  0  0  0  0  0  0  0  0
    3.4663   -0.0291    0.7688 O   0  0  0  0  0  0  0  0  0  0  0  0
    3.5142    0.4726   -0.5060 C   0  0  0  0  0  0  0  0  0  0  0  0
    4.5781    0.2836   -1.3948 C   0  0  0  0  0  0  0  0  0  0  0  0
    4.5319    0.8270   -2.6813 C   0  0  0  0  0  0  0  0  0  0  0  0
    3.4235    1.5599   -3.0921 C   0  0  0  0  0  0  0  0  0  0  0  0
    2.3569    1.7512   -2.2164 C   0  0  0  0  0  0  0  0  0  0  0  0
    2.3882    1.2128   -0.9178 C   0  0  0  0  0  0  0  0  0  0  0  0
    1.2058    1.4384    0.0016 C   0  0  0  0  0  0  0  0  0  0  0  0
    0.3844    0.2442    0.2172 N   0  0  0  0  0  0  0  0  0  0  0  0
   -0.3747   -0.1480   -0.9754 C   0  0  0  0  0  0  0  0  0  0  0  0
   -1.3224   -1.3254   -0.6898 C   0  0  0  0  0  0  0  0  0  0  0  0
   -2.6007   -0.9231    0.0106 C   0  0  0  0  0  0  0  0  0  0  0  0
   -2.6112   -0.6897    1.3908 C   0  0  0  0  0  0  0  0  0  0  0  0
   -3.7789   -0.3113    2.0628 C   0  0  0  0  0  0  0  0  0  0  0  0
   -4.9454   -0.1710    1.3045 C   0  0  0  0  0  0  0  0  0  0  0  0
   -6.2184    0.1856    1.6882 N   0  0  0  0  0  0  0  0  0  0  0  0
   -7.0545    0.1975    0.6031 C   0  0  0  0  0  0  0  0  0  0  0  0
   -6.3133   -0.1549   -0.5018 C   0  0  0  0  0  0  0  0  0  0  0  0
   -4.9779   -0.3902   -0.0716 C   0  0  0  0  0  0  0  0  0  0  0  0
   -3.7891   -0.7693   -0.7267 C   0  0  0  0  0  0  0  0  0  0  0  0
    3.4108   -1.3878    2.9367 H   0  0  0  0  0  0  0  0  0  0  0  0
    4.8461   -1.5725    0.7068 H   0  0  0  0  0  0  0  0  0  0  0  0
    5.5030    0.0216    1.2097 H   0  0  0  0  0  0  0  0  0  0  0  0
    5.4608   -0.2855   -1.1231 H   0  0  0  0  0  0  0  0  0  0  0  0
    5.3643    0.6754   -3.3641 H   0  0  0  0  0  0  0  0  0  0  0  0
    3.3882    1.9815   -4.0933 H   0  0  0  0  0  0  0  0  0  0  0  0
    1.4934    2.3228   -2.5505 H   0  0  0  0  0  0  0  0  0  0  0  0
    1.5828    1.7815    0.9731 H   0  0  0  0  0  0  0  0  0  0  0  0
    0.5815    2.2640   -0.3633 H   0  0  0  0  0  0  0  0  0  0  0  0
    1.0023   -0.5164    0.4978 H   0  0  0  0  0  0  0  0  0  0  0  0
   -0.9485    0.7026   -1.3629 H   0  0  0  0  0  0  0  0  0  0  0  0
    0.3225   -0.4664   -1.7592 H   0  0  0  0  0  0  0  0  0  0  0  0
   -1.5797   -1.8014   -1.6452 H   0  0  0  0  0  0  0  0  0  0  0  0
   -0.8139   -2.1047   -0.1070 H   0  0  0  0  0  0  0  0  0  0  0  0
   -1.6899   -0.7928    1.9617 H   0  0  0  0  0  0  0  0  0  0  0  0
   -3.7685   -0.1302    3.1322 H   0  0  0  0  0  0  0  0  0  0  0  0
   -6.4885    0.4062    2.6364 H   0  0  0  0  0  0  0  0  0  0  0  0
   -8.0993    0.4553    0.7104 H   0  0  0  0  0  0  0  0  0  0  0  0
   -6.6880   -0.2356   -1.5135 H   0  0  0  0  0  0  0  0  0  0  0  0
   -3.8017   -0.9402   -1.7991 H   0  0  0  0  0  0  0  0  0  0  0  0
  1  2  1  0
  2  3  1  0
  2  4  1  0
  4  5  1  0
  5  6  1  0
  6  7  2  0
  7  8  1  0
  8  9  2  0
  9 10  1  0
 10 11  2  0
 11 12  1  0
 12 13  1  0
 13 14  1  0
 14 15  1  0
 15 16  1  0
 16 17  2  0
 17 18  1  0
 18 19  2  0
 19 20  1  0
 20 21  1  0
 21 22  2  0
 22 23  1  0
 23 24  2  0
 11  6  1  0
 24 16  1  0
 23 19  1  0
  2 25  1  0
  4 26  1  0
  4 27  1  0
  7 28  1  0
  8 29  1  0
  9 30  1  0
 10 31  1  0
 12 32  1  0
 12 33  1  0
 13 34  1  0
 14 35  1  0
 14 36  1  0
 15 37  1  0
 15 38  1  0
 17 39  1  0
 18 40  1  0
 20 41  1  0
 21 42  1  0
 22 43  1  0
 24 44  1  0
M  END
$$$$
OCNT-2315035
     RDKit          3D

 67 71  0  0  0  0  0  0  0  0999 V2000
    3.2351   -2.5666    4.3349 C   0  0  0  0  0  0  0  0  0  0  0  0
    3.2691   -1.2423    3.7166 N   0  0  0  0  0  0  0  0  0  0  0  0
    4.2175   -1.2037    2.5947 C   0  0  0  0  0  0  0  0  0  0  0  0
    3.7566   -0.3320    1.4260 C   0  0  0  0  0  0  0  0  0  0  0  0
    2.4205   -0.8714    0.9148 C   0  0  0  0  0  0  0  0  0  0  0  0
    1.8852   -0.1500   -0.3213 C   0  0  0  0  0  0  0  0  0  0  0  0
    1.6900   -0.8272   -1.3411 O   0  0  0  0  0  0  0  0  0  0  0  0
    1.6155    1.2059   -0.3245 N   0  0  0  0  0  0  0  0  0  0  0  0
    1.4239    2.0438    0.8544 C   0  0  0  0  0  0  0  0  0  0  0  0
    2.2315    3.3335    0.7562 C   0  0  0  0  0  0  0  0  0  0  0  0
    2.0509    4.0175   -0.5730 C   0  0  0  0  0  0  0  0  0  0  0  0
    2.4257    5.3630   -0.7067 C   0  0  0  0  0  0  0  0  0  0  0  0
    2.3223    6.0078   -1.9369 C   0  0  0  0  0  0  0  0  0  0  0  0
    1.8552    5.3121   -3.0465 C   0  0  0  0  0  0  0  0  0  0  0  0
    1.4919    3.9707   -2.9273 C   0  0  0  0  0  0  0  0  0  0  0  0
    1.5803    3.3055   -1.6915 C   0  0  0  0  0  0  0  0  0  0  0  0
    1.1883    1.8330   -1.6016 C   0  0  0  0  0  0  0  0  0  0  0  0
   -0.3334    1.6345   -1.8659 C   0  0  0  0  0  0  0  0  0  0  0  0
   -0.7129    0.2375   -2.0030 N   0  0  0  0  0  0  0  0  0  0  0  0
   -1.9977   -0.1490   -2.3158 C   0  0  0  0  0  0  0  0  0  0  0  0
   -2.9073    0.6584   -2.4829 O   0  0  0  0  0  0  0  0  0  0  0  0
   -2.1448   -1.6539   -2.4772 C   0  0  0  0  0  0  0  0  0  0  0  0
   -3.5254   -2.1835   -2.1481 C   0  0  0  0  0  0  0  0  0  0  0  0
   -4.3779   -2.5057   -3.2219 C   0  0  0  0  0  0  0  0  0  0  0  0
   -5.6537   -3.0083   -2.9923 C   0  0  0  0  0  0  0  0  0  0  0  0
   -6.0996   -3.1926   -1.6860 C   0  0  0  0  0  0  0  0  0  0  0  0
   -5.2795   -2.8765   -0.5915 C   0  0  0  0  0  0  0  0  0  0  0  0
   -5.7524   -3.0682    0.7187 C   0  0  0  0  0  0  0  0  0  0  0  0
   -4.9571   -2.7619    1.8233 C   0  0  0  0  0  0  0  0  0  0  0  0
   -3.6781   -2.2563    1.6298 C   0  0  0  0  0  0  0  0  0  0  0  0
   -3.1940   -2.0587    0.3329 C   0  0  0  0  0  0  0  0  0  0  0  0
   -3.9745   -2.3627   -0.8086 C   0  0  0  0  0  0  0  0  0  0  0  0
    1.3904   -1.0916    2.0296 C   0  0  0  0  0  0  0  0  0  0  0  0
    1.9291   -0.7337    3.4178 C   0  0  0  0  0  0  0  0  0  0  0  0
    2.8212   -3.3231    3.6576 H   0  0  0  0  0  0  0  0  0  0  0  0
    2.6369   -2.5488    5.2520 H   0  0  0  0  0  0  0  0  0  0  0  0
    4.2446   -2.8794    4.6264 H   0  0  0  0  0  0  0  0  0  0  0  0
    4.3931   -2.2147    2.2039 H   0  0  0  0  0  0  0  0  0  0  0  0
    5.1836   -0.8424    2.9615 H   0  0  0  0  0  0  0  0  0  0  0  0
    3.6953    0.7134    1.7409 H   0  0  0  0  0  0  0  0  0  0  0  0
    4.5029   -0.3643    0.6237 H   0  0  0  0  0  0  0  0  0  0  0  0
    2.6525   -1.8803    0.5363 H   0  0  0  0  0  0  0  0  0  0  0  0
    0.3522    2.2675    0.9283 H   0  0  0  0  0  0  0  0  0  0  0  0
    1.6897    1.5259    1.7692 H   0  0  0  0  0  0  0  0  0  0  0  0
    1.9270    4.0048    1.5702 H   0  0  0  0  0  0  0  0  0  0  0  0
    3.3008    3.1123    0.8831 H   0  0  0  0  0  0  0  0  0  0  0  0
    2.8094    5.9135    0.1488 H   0  0  0  0  0  0  0  0  0  0  0  0
    2.6169    7.0492   -2.0310 H   0  0  0  0  0  0  0  0  0  0  0  0
    1.7794    5.8116   -4.0084 H   0  0  0  0  0  0  0  0  0  0  0  0
    1.1444    3.4426   -3.8128 H   0  0  0  0  0  0  0  0  0  0  0  0
    1.7416    1.3214   -2.4017 H   0  0  0  0  0  0  0  0  0  0  0  0
   -0.9339    2.0616   -1.0538 H   0  0  0  0  0  0  0  0  0  0  0  0
   -0.6426    2.1384   -2.7892 H   0  0  0  0  0  0  0  0  0  0  0  0
    0.0362   -0.4569   -1.9806 H   0  0  0  0  0  0  0  0  0  0  0  0
   -1.8868   -1.8917   -3.5180 H   0  0  0  0  0  0  0  0  0  0  0  0
   -1.4024   -2.1792   -1.8640 H   0  0  0  0  0  0  0  0  0  0  0  0
   -4.0490   -2.3594   -4.2492 H   0  0  0  0  0  0  0  0  0  0  0  0
   -6.3031   -3.2542   -3.8308 H   0  0  0  0  0  0  0  0  0  0  0  0
   -7.1030   -3.5843   -1.5309 H   0  0  0  0  0  0  0  0  0  0  0  0
   -6.7539   -3.4593    0.8875 H   0  0  0  0  0  0  0  0  0  0  0  0
   -5.3402   -2.9162    2.8295 H   0  0  0  0  0  0  0  0  0  0  0  0
   -3.0532   -2.0088    2.4853 H   0  0  0  0  0  0  0  0  0  0  0  0
   -2.1924   -1.6516    0.2287 H   0  0  0  0  0  0  0  0  0  0  0  0
    0.4674   -0.5327    1.8388 H   0  0  0  0  0  0  0  0  0  0  0  0
    1.0964   -2.1503    2.0296 H   0  0  0  0  0  0  0  0  0  0  0  0
    1.2078   -1.0483    4.1823 H   0  0  0  0  0  0  0  0  0  0  0  0
    1.9703    0.3566    3.5193 H   0  0  0  0  0  0  0  0  0  0  0  0
  1  2  1  0
  2  3  1  0
  3  4  1  0
  4  5  1  0
  5  6  1  0
  6  7  2  0
  6  8  1  0
  8  9  1  0
  9 10  1  0
 10 11  1  0
 11 12  2  0
 12 13  1  0
 13 14  2  0
 14 15  1  0
 15 16  2  0
 16 17  1  0
 17 18  1  0
 18 19  1  0
 19 20  1  0
 20 21  2  0
 20 22  1  0
 22 23  1  0
 23 24  2  0
 24 25  1  0
 25 26  2  0
 26 27  1  0
 27 28  2  0
 28 29  1  0
 29 30  2  0
 30 31  1  0
 31 32  2  0
  5 33  1  0
 33 34  1  0
 34  2  1  0
 17  8  1  0
 32 23  1  0
 16 11  1  0
 32 27  1  0
  1 35  1  0
  1 36  1  0
  1 37  1  0
  3 38  1  0
  3 39  1  0
  4 40  1  0
  4 41  1  0
  5 42  1  0
  9 43  1  0
  9 44  1  0
 10 45  1  0
 10 46  1  0
 12 47  1  0
 13 48  1  0
 14 49  1  0
 15 50  1  0
 17 51  1  0
 18 52  1  0
 18 53  1  0
 19 54  1  0
 22 55  1  0
 22 56  1  0
 24 57  1  0
 25 58  1  0
 26 59  1  0
 28 60  1  0
 29 61  1  0
 30 62  1  0
 31 63  1  0
 33 64  1  0
 33 65  1  0
 34 66  1  0
 34 67  1  0
M  END
$$$$
OCNT-2315045
     RDKit          3D

 49 51  0  0  0  0  0  0  0  0999 V2000
   -1.0745   -3.1515    1.1572 C   0  0  0  0  0  0  0  0  0  0  0  0
   -0.8795   -2.3974   -0.1589 C   0  0  0  0  0  0  0  0  0  0  0  0
   -1.3144   -3.2849   -1.3290 C   0  0  0  0  0  0  0  0  0  0  0  0
   -1.6621   -1.0662   -0.1999 C   0  0  0  0  0  0  0  0  0  0  0  0
   -1.2495   -0.0252    0.8649 C   0  0  0  0  0  0  0  0  0  0  0  0
    0.1723    0.4170    0.7021 C   0  0  0  0  0  0  0  0  0  0  0  0
    0.8716    0.6512   -0.3890 N   0  0  0  0  0  0  0  0  0  0  0  0
    2.1053    0.9714    0.1219 C   0  0  0  0  0  0  0  0  0  0  0  0
    3.2749    1.2925   -0.7418 C   0  0  0  0  0  0  0  0  0  0  0  0
    3.9827    0.0728   -1.2344 C   0  0  0  0  0  0  0  0  0  0  0  0
    3.9338   -0.5518   -2.4649 C   0  0  0  0  0  0  0  0  0  0  0  0
    4.7513   -1.6492   -2.4957 N   0  0  0  0  0  0  0  0  0  0  0  0
    5.2890   -1.7129   -1.2999 C   0  0  0  0  0  0  0  0  0  0  0  0
    4.8567   -0.6934   -0.4989 N   0  0  0  0  0  0  0  0  0  0  0  0
    5.2581   -0.5002    0.8733 C   0  0  0  0  0  0  0  0  0  0  0  0
    2.1772    0.9738    1.4608 N   0  0  0  0  0  0  0  0  0  0  0  0
    0.8898    0.6001    1.8506 O   0  0  0  0  0  0  0  0  0  0  0  0
   -2.1695    1.1415    0.8704 N   0  0  0  0  0  0  0  0  0  0  0  0
   -2.1623    2.0421   -0.2861 C   0  0  0  0  0  0  0  0  0  0  0  0
   -2.9239    3.3357   -0.0470 C   0  0  0  0  0  0  0  0  0  0  0  0
   -4.3243    3.0052    0.4303 C   0  0  0  0  0  0  0  0  0  0  0  0
   -4.2420    2.2166    1.7220 C   0  0  0  0  0  0  0  0  0  0  0  0
   -3.3131    1.0194    1.6582 C   0  0  0  0  0  0  0  0  0  0  0  0
   -3.5307    0.0348    2.3649 O   0  0  0  0  0  0  0  0  0  0  0  0
   -2.1368   -3.3135    1.3684 H   0  0  0  0  0  0  0  0  0  0  0  0
   -0.5846   -4.1307    1.1199 H   0  0  0  0  0  0  0  0  0  0  0  0
   -0.6373   -2.6063    1.9988 H   0  0  0  0  0  0  0  0  0  0  0  0
    0.1910   -2.1941   -0.2823 H   0  0  0  0  0  0  0  0  0  0  0  0
   -0.7437   -4.2196   -1.3419 H   0  0  0  0  0  0  0  0  0  0  0  0
   -2.3781   -3.5379   -1.2626 H   0  0  0  0  0  0  0  0  0  0  0  0
   -1.1443   -2.7790   -2.2853 H   0  0  0  0  0  0  0  0  0  0  0  0
   -2.7334   -1.2834   -0.0922 H   0  0  0  0  0  0  0  0  0  0  0  0
   -1.5453   -0.6270   -1.2000 H   0  0  0  0  0  0  0  0  0  0  0  0
   -1.3232   -0.4963    1.8517 H   0  0  0  0  0  0  0  0  0  0  0  0
    2.9236    1.8772   -1.6015 H   0  0  0  0  0  0  0  0  0  0  0  0
    3.9757    1.9428   -0.2048 H   0  0  0  0  0  0  0  0  0  0  0  0
    3.3503   -0.2657   -3.3311 H   0  0  0  0  0  0  0  0  0  0  0  0
    5.9875   -2.4695   -0.9662 H   0  0  0  0  0  0  0  0  0  0  0  0
    5.4542    0.5606    1.0447 H   0  0  0  0  0  0  0  0  0  0  0  0
    6.1708   -1.0701    1.0670 H   0  0  0  0  0  0  0  0  0  0  0  0
    4.4537   -0.8577    1.5199 H   0  0  0  0  0  0  0  0  0  0  0  0
   -2.6103    1.5021   -1.1284 H   0  0  0  0  0  0  0  0  0  0  0  0
   -1.1331    2.2958   -0.5518 H   0  0  0  0  0  0  0  0  0  0  0  0
   -2.9665    3.9209   -0.9720 H   0  0  0  0  0  0  0  0  0  0  0  0
   -2.4057    3.9447    0.7037 H   0  0  0  0  0  0  0  0  0  0  0  0
   -4.8975    3.9250    0.5893 H   0  0  0  0  0  0  0  0  0  0  0  0
   -4.8510    2.4204   -0.3338 H   0  0  0  0  0  0  0  0  0  0  0  0
   -5.2438    1.8610    1.9884 H   0  0  0  0  0  0  0  0  0  0  0  0
   -3.8890    2.8591    2.5374 H   0  0  0  0  0  0  0  0  0  0  0  0
  1  2  1  0
  2  3  1  0
  2  4  1  0
  4  5  1  0
  5  6  1  0
  6  7  2  0
  7  8  1  0
  8  9  1  0
  9 10  1  0
 10 11  2  0
 11 12  1  0
 12 13  2  0
 13 14  1  0
 14 15  1  0
  8 16  2  0
 16 17  1  0
  5 18  1  0
 18 19  1  0
 19 20  1  0
 20 21  1  0
 21 22  1  0
 22 23  1  0
 23 24  2  0
 17  6  1  0
 23 18  1  0
 14 10  1  0
  1 25  1  0
  1 26  1  0
  1 27  1  0
  2 28  1  0
  3 29  1  0
  3 30  1  0
  3 31  1  0
  4 32  1  0
  4 33  1  0
  5 34  1  0
  9 35  1  0
  9 36  1  0
 11 37  1  0
 13 38  1  0
 15 39  1  0
 15 40  1  0
 15 41  1  0
 19 42  1  0
 19 43  1  0
 20 44  1  0
 20 45  1  0
 21 46  1  0
 21 47  1  0
 22 48  1  0
 22 49  1  0
M  END
$$$$
OCNT-2315056
     RDKit          3D

 46 49  0  0  0  0  0  0  0  0999 V2000
    6.6018   -0.9640   -0.8661 C   0  0  0  0  0  0  0  0  0  0  0  0
    5.1414   -0.6968   -0.6087 C   0  0  0  0  0  0  0  0  0  0  0  0
    4.2976   -1.7870   -0.3044 C   0  0  0  0  0  0  0  0  0  0  0  0
    2.9328   -1.5578   -0.0631 C   0  0  0  0  0  0  0  0  0  0  0  0
    2.4586   -0.2592   -0.1322 C   0  0  0  0  0  0  0  0  0  0  0  0
    3.2500    0.8472   -0.4265 C   0  0  0  0  0  0  0  0  0  0  0  0
    4.6178    0.6152   -0.6663 C   0  0  0  0  0  0  0  0  0  0  0  0
    5.5010    1.7917   -0.9917 C   0  0  0  0  0  0  0  0  0  0  0  0
    1.1244   -0.2280    0.1268 O   0  0  0  0  0  0  0  0  0  0  0  0
    0.7137   -1.5108    0.3675 C   0  0  0  0  0  0  0  0  0  0  0  0
   -0.6706   -1.8485    0.6797 C   0  0  0  0  0  0  0  0  0  0  0  0
   -0.9745   -3.0277    0.8926 O   0  0  0  0  0  0  0  0  0  0  0  0
   -1.6701   -0.8604    0.7566 N   0  0  0  0  0  0  0  0  0  0  0  0
   -1.4700    0.5183    0.3081 C   0  0  0  0  0  0  0  0  0  0  0  0
   -2.6575    1.4438    0.4541 C   0  0  0  0  0  0  0  0  0  0  0  0
   -2.5510    2.7646   -0.0100 C   0  0  0  0  0  0  0  0  0  0  0  0
   -3.6149    3.6561    0.1279 C   0  0  0  0  0  0  0  0  0  0  0  0
   -4.7958    3.2401    0.7362 C   0  0  0  0  0  0  0  0  0  0  0  0
   -4.9155    1.9315    1.2017 C   0  0  0  0  0  0  0  0  0  0  0  0
   -3.8554    1.0268    1.0523 C   0  0  0  0  0  0  0  0  0  0  0  0
   -3.9760   -0.3788    1.5708 C   0  0  0  0  0  0  0  0  0  0  0  0
   -3.0549   -1.3477    0.8243 C   0  0  1  0  0  0  0  0  0  0  0  0
   -3.5950   -1.6782   -0.5870 C   0  0  0  0  0  0  0  0  0  0  0  0
   -4.7421   -2.4270   -0.6222 N   0  0  0  0  0  0  0  0  0  0  0  0
   -3.0812   -1.3073   -1.6391 O   0  0  0  0  0  0  0  0  0  0  0  0
    1.8077   -2.3571    0.2582 C   0  0  0  0  0  0  0  0  0  0  0  0
    7.2182   -0.4499   -0.1221 H   0  0  0  0  0  0  0  0  0  0  0  0
    6.8794   -0.6262   -1.8695 H   0  0  0  0  0  0  0  0  0  0  0  0
    6.8324   -2.0328   -0.8041 H   0  0  0  0  0  0  0  0  0  0  0  0
    4.6907   -2.7989   -0.2573 H   0  0  0  0  0  0  0  0  0  0  0  0
    2.8160    1.8395   -0.4660 H   0  0  0  0  0  0  0  0  0  0  0  0
    6.3165    1.8687   -0.2657 H   0  0  0  0  0  0  0  0  0  0  0  0
    5.9152    1.6876   -1.9994 H   0  0  0  0  0  0  0  0  0  0  0  0
    4.9434    2.7338   -0.9588 H   0  0  0  0  0  0  0  0  0  0  0  0
   -0.6649    0.9471    0.9135 H   0  0  0  0  0  0  0  0  0  0  0  0
   -1.1656    0.4899   -0.7446 H   0  0  0  0  0  0  0  0  0  0  0  0
   -1.6321    3.1046   -0.4835 H   0  0  0  0  0  0  0  0  0  0  0  0
   -3.5207    4.6752   -0.2376 H   0  0  0  0  0  0  0  0  0  0  0  0
   -5.6239    3.9350    0.8477 H   0  0  0  0  0  0  0  0  0  0  0  0
   -5.8423    1.6203    1.6779 H   0  0  0  0  0  0  0  0  0  0  0  0
   -3.7032   -0.3644    2.6338 H   0  0  0  0  0  0  0  0  0  0  0  0
   -5.0175   -0.7147    1.5020 H   0  0  0  0  0  0  0  0  0  0  0  0
   -3.0729   -2.2928    1.3822 H   0  0  0  0  0  0  0  0  0  0  0  0
   -4.9540   -3.0630    0.1349 H   0  0  0  0  0  0  0  0  0  0  0  0
   -5.0161   -2.7284   -1.5499 H   0  0  0  0  0  0  0  0  0  0  0  0
    1.7789   -3.4293    0.3958 H   0  0  0  0  0  0  0  0  0  0  0  0
  1  2  1  0
  2  3  1  0
  3  4  2  0
  4  5  1  0
  5  6  2  0
  6  7  1  0
  7  8  1  0
  5  9  1  0
  9 10  1  0
 10 11  1  0
 11 12  2  0
 11 13  1  0
 13 14  1  0
 14 15  1  0
 15 16  2  0
 16 17  1  0
 17 18  2  0
 18 19  1  0
 19 20  2  0
 20 21  1  0
 21 22  1  0
 22 23  1  0
 23 24  1  0
 23 25  2  0
 10 26  2  0
  7  2  2  0
 22 13  1  0
 26  4  1  0
 20 15  1  0
  1 27  1  0
  1 28  1  0
  1 29  1  0
  3 30  1  0
  6 31  1  0
  8 32  1  0
  8 33  1  0
  8 34  1  0
 14 35  1  0
 14 36  1  0
 16 37  1  0
 17 38  1  0
 18 39  1  0
 19 40  1  0
 21 41  1  0
 21 42  1  0
 22 43  1  1
 24 44  1  0
 24 45  1  0
 26 46  1  0
M  END
$$$$
OCNT-2315064
     RDKit          3D

 46 49  0  0  0  0  0  0  0  0999 V2000
   -4.2637    2.6724    0.2911 C   0  0  0  0  0  0  0  0  0  0  0  0
   -4.9393    1.4224   -0.1721 C   0  0  0  0  0  0  0  0  0  0  0  0
   -6.1098    1.4777   -0.9184 C   0  0  0  0  0  0  0  0  0  0  0  0
   -6.7717    0.3923   -1.3796 N   0  0  0  0  0  0  0  0  0  0  0  0
   -6.2485   -0.8157   -1.0760 C   0  0  0  0  0  0  0  0  0  0  0  0
   -5.0814   -0.9873   -0.3561 C   0  0  0  0  0  0  0  0  0  0  0  0
   -4.4111    0.1542    0.0747 C   0  0  0  0  0  0  0  0  0  0  0  0
   -3.2674    0.0497    0.8208 O   0  0  0  0  0  0  0  0  0  0  0  0
   -2.1638   -0.5116    0.0861 C   0  0  0  0  0  0  0  0  0  0  0  0
   -1.0523    0.5457    0.0691 C   0  0  0  0  0  0  0  0  0  0  0  0
    0.3207   -0.0902   -0.0910 C   0  0  0  0  0  0  0  0  0  0  0  0
    0.6051   -1.0484    0.9846 N   0  0  0  0  0  0  0  0  0  0  0  0
    1.8657   -1.2433    1.5504 C   0  0  0  0  0  0  0  0  0  0  0  0
    2.0402   -1.7940    2.6350 O   0  0  0  0  0  0  0  0  0  0  0  0
    3.0652   -0.7666    0.8377 C   0  0  0  0  0  0  0  0  0  0  0  0
    4.0209   -0.0494    1.5603 C   0  0  0  0  0  0  0  0  0  0  0  0
    5.1805    0.4564    1.0577 N   0  0  0  0  0  0  0  0  0  0  0  0
    5.3355    0.1596   -0.2494 C   0  0  0  0  0  0  0  0  0  0  0  0
    4.4769   -0.5645   -1.0666 C   0  0  0  0  0  0  0  0  0  0  0  0
    3.2941   -1.0642   -0.5115 C   0  0  0  0  0  0  0  0  0  0  0  0
    5.0039   -0.6419   -2.3279 N   0  0  0  0  0  0  0  0  0  0  0  0
    6.1625    0.0132   -2.3319 N   0  0  0  0  0  0  0  0  0  0  0  0
    6.3668    0.4848   -1.0833 N   0  0  0  0  0  0  0  0  0  0  0  0
    7.5571    1.2254   -0.7708 C   0  0  0  0  0  0  0  0  0  0  0  0
   -0.5450   -1.6035    1.6971 C   0  0  0  0  0  0  0  0  0  0  0  0
   -1.7301   -1.8164    0.7652 C   0  0  0  0  0  0  0  0  0  0  0  0
   -3.4349    2.9226   -0.3772 H   0  0  0  0  0  0  0  0  0  0  0  0
   -4.9602    3.5182    0.3130 H   0  0  0  0  0  0  0  0  0  0  0  0
   -3.8805    2.5501    1.3096 H   0  0  0  0  0  0  0  0  0  0  0  0
   -6.5704    2.4287   -1.1764 H   0  0  0  0  0  0  0  0  0  0  0  0
   -6.8165   -1.6702   -1.4316 H   0  0  0  0  0  0  0  0  0  0  0  0
   -4.7176   -1.9814   -0.1274 H   0  0  0  0  0  0  0  0  0  0  0  0
   -2.4444   -0.7381   -0.9533 H   0  0  0  0  0  0  0  0  0  0  0  0
   -1.2392    1.2590   -0.7449 H   0  0  0  0  0  0  0  0  0  0  0  0
   -1.0785    1.1361    0.9960 H   0  0  0  0  0  0  0  0  0  0  0  0
    1.0824    0.6944   -0.1034 H   0  0  0  0  0  0  0  0  0  0  0  0
    0.3735   -0.6374   -1.0397 H   0  0  0  0  0  0  0  0  0  0  0  0
    3.8668    0.1525    2.6204 H   0  0  0  0  0  0  0  0  0  0  0  0
    2.6087   -1.6593   -1.1019 H   0  0  0  0  0  0  0  0  0  0  0  0
    8.4238    0.6578   -1.1173 H   0  0  0  0  0  0  0  0  0  0  0  0
    7.5069    2.1911   -1.2799 H   0  0  0  0  0  0  0  0  0  0  0  0
    7.6268    1.3755    0.3092 H   0  0  0  0  0  0  0  0  0  0  0  0
   -0.8038   -0.9055    2.5022 H   0  0  0  0  0  0  0  0  0  0  0  0
   -0.2618   -2.5531    2.1642 H   0  0  0  0  0  0  0  0  0  0  0  0
   -1.4323   -2.5335   -0.0089 H   0  0  0  0  0  0  0  0  0  0  0  0
   -2.5601   -2.2641    1.3213 H   0  0  0  0  0  0  0  0  0  0  0  0
  1  2  1  0
  2  3  2  0
  3  4  1  0
  4  5  2  0
  5  6  1  0
  6  7  2  0
  7  8  1  0
  8  9  1  0
  9 10  1  0
 10 11  1  0
 11 12  1  0
 12 13  1  0
 13 14  2  0
 13 15  1  0
 15 16  2  0
 16 17  1  0
 17 18  2  0
 18 19  1  0
 19 20  2  0
 19 21  1  0
 21 22  2  0
 22 23  1  0
 23 24  1  0
 12 25  1  0
 25 26  1  0
  7  2  1  0
 26  9  1  0
 20 15  1  0
 23 18  1  0
  1 27  1  0
  1 28  1  0
  1 29  1  0
  3 30  1  0
  5 31  1  0
  6 32  1  0
  9 33  1  0
 10 34  1  0
 10 35  1  0
 11 36  1  0
 11 37  1  0
 16 38  1  0
 20 39  1  0
 24 40  1  0
 24 41  1  0
 24 42  1  0
 25 43  1  0
 25 44  1  0
 26 45  1  0
 26 46  1  0
M  END
$$$$
OCNT-2315065
     RDKit          3D

 48 50  0  0  0  0  0  0  0  0999 V2000
    0.6226   -1.4304    1.2377 O   0  0  0  0  0  0  0  0  0  0  0  0
    0.8840   -1.6819    0.0617 C   0  0  0  0  0  0  0  0  0  0  0  0
    2.2491   -2.1976   -0.3683 C   0  0  0  0  0  0  0  0  0  0  0  0
    3.3499   -1.8984    0.6513 C   0  0  0  0  0  0  0  0  0  0  0  0
    3.8167   -0.4581    0.6076 C   0  0  0  0  0  0  0  0  0  0  0  0
    3.2817    0.4548    1.5331 C   0  0  0  0  0  0  0  0  0  0  0  0
    3.6678    1.7964    1.5255 C   0  0  0  0  0  0  0  0  0  0  0  0
    4.5948    2.2496    0.5918 C   0  0  0  0  0  0  0  0  0  0  0  0
    5.1338    1.3602   -0.3366 C   0  0  0  0  0  0  0  0  0  0  0  0
    4.7476    0.0157   -0.3321 C   0  0  0  0  0  0  0  0  0  0  0  0
    5.4551   -1.0203   -1.5215 Cl  0  0  0  0  0  0  0  0  0  0  0  0
   -0.0576   -1.5441   -0.9389 N   0  0  0  0  0  0  0  0  0  0  0  0
    0.0467   -2.0817   -2.2875 C   0  0  0  0  0  0  0  0  0  0  0  0
   -1.3952   -2.2841   -2.7232 C   0  0  0  0  0  0  0  0  0  0  0  0
   -2.1178   -1.1395   -2.0295 C   0  0  0  0  0  0  0  0  0  0  0  0
   -1.4137   -1.0484   -0.6657 C   0  0  0  0  0  0  0  0  0  0  0  0
   -1.4502    0.3921   -0.0939 C   0  0  0  0  0  0  0  0  0  0  0  0
   -2.8139    0.9375    0.0562 N   0  0  0  0  0  0  0  0  0  0  0  0
   -2.7620    2.4102    0.1998 C   0  0  0  0  0  0  0  0  0  0  0  0
   -4.0347    2.9628    0.8572 C   0  0  0  0  0  0  0  0  0  0  0  0
   -4.2089    2.5007    2.2039 O   0  0  0  0  0  0  0  0  0  0  0  0
   -3.5917    1.2287    2.4444 C   0  0  0  0  0  0  0  0  0  0  0  0
   -3.5461    0.3346    1.1940 C   0  0  0  0  0  0  0  0  0  0  0  0
    2.5114   -1.7822   -1.3465 H   0  0  0  0  0  0  0  0  0  0  0  0
    2.1551   -3.2852   -0.4716 H   0  0  0  0  0  0  0  0  0  0  0  0
    4.2070   -2.5575    0.4670 H   0  0  0  0  0  0  0  0  0  0  0  0
    3.0195   -2.1495    1.6674 H   0  0  0  0  0  0  0  0  0  0  0  0
    2.5490    0.1224    2.2682 H   0  0  0  0  0  0  0  0  0  0  0  0
    3.2412    2.4856    2.2503 H   0  0  0  0  0  0  0  0  0  0  0  0
    4.8968    3.2936    0.5859 H   0  0  0  0  0  0  0  0  0  0  0  0
    5.8564    1.7214   -1.0640 H   0  0  0  0  0  0  0  0  0  0  0  0
    0.6187   -3.0128   -2.3130 H   0  0  0  0  0  0  0  0  0  0  0  0
    0.5480   -1.3299   -2.9065 H   0  0  0  0  0  0  0  0  0  0  0  0
   -1.5136   -2.2696   -3.8100 H   0  0  0  0  0  0  0  0  0  0  0  0
   -1.7725   -3.2427   -2.3471 H   0  0  0  0  0  0  0  0  0  0  0  0
   -3.1926   -1.3200   -1.9331 H   0  0  0  0  0  0  0  0  0  0  0  0
   -1.9767   -0.2186   -2.6091 H   0  0  0  0  0  0  0  0  0  0  0  0
   -1.8675   -1.7576    0.0369 H   0  0  0  0  0  0  0  0  0  0  0  0
   -0.8843    1.0291   -0.7885 H   0  0  0  0  0  0  0  0  0  0  0  0
   -0.9186    0.4482    0.8632 H   0  0  0  0  0  0  0  0  0  0  0  0
   -2.6355    2.8598   -0.7912 H   0  0  0  0  0  0  0  0  0  0  0  0
   -1.9022    2.7049    0.8164 H   0  0  0  0  0  0  0  0  0  0  0  0
   -4.9251    2.6844    0.2813 H   0  0  0  0  0  0  0  0  0  0  0  0
   -3.9976    4.0565    0.8894 H   0  0  0  0  0  0  0  0  0  0  0  0
   -2.5820    1.4050    2.8332 H   0  0  0  0  0  0  0  0  0  0  0  0
   -4.1625    0.7348    3.2374 H   0  0  0  0  0  0  0  0  0  0  0  0
   -3.1540   -0.6511    1.4646 H   0  0  0  0  0  0  0  0  0  0  0  0
   -4.5762    0.1724    0.8525 H   0  0  0  0  0  0  0  0  0  0  0  0
  1  2  2  0
  2  3  1  0
  3  4  1  0
  4  5  1  0
  5  6  2  0
  6  7  1  0
  7  8  2  0
  8  9  1  0
  9 10  2  0
 10 11  1  0
  2 12  1  0
 12 13  1  0
 13 14  1  0
 14 15  1  0
 15 16  1  0
 16 17  1  0
 17 18  1  0
 18 19  1  0
 19 20  1  0
 20 21  1  0
 21 22  1  0
 22 23  1  0
 10  5  1  0
 16 12  1  0
 23 18  1  0
  3 24  1  0
  3 25  1  0
  4 26  1  0
  4 27  1  0
  6 28  1  0
  7 29  1  0
  8 30  1  0
  9 31  1  0
 13 32  1  0
 13 33  1  0
 14 34  1  0
 14 35  1  0
 15 36  1  0
 15 37  1  0
 16 38  1  0
 17 39  1  0
 17 40  1  0
 19 41  1  0
 19 42  1  0
 20 43  1  0
 20 44  1  0
 22 45  1  0
 22 46  1  0
 23 47  1  0
 23 48  1  0
M  END
$$$$
OCNT-2315079
     RDKit          3D

 54 56  0  0  0  0  0  0  0  0999 V2000
   -4.4050   -2.4794    0.7555 C   0  0  0  0  0  0  0  0  0  0  0  0
   -4.1755   -1.7442   -0.5663 C   0  0  0  0  0  0  0  0  0  0  0  0
   -3.1568   -2.4904   -1.4482 C   0  0  0  0  0  0  0  0  0  0  0  0
   -1.8737   -1.6903   -1.6337 C   0  0  0  0  0  0  0  0  0  0  0  0
   -2.1650   -0.2778   -2.1526 C   0  0  0  0  0  0  0  0  0  0  0  0
   -3.3284    0.3599   -1.5310 N   0  0  0  0  0  0  0  0  0  0  0  0
   -3.2404    1.8275   -1.4506 C   0  0  0  0  0  0  0  0  0  0  0  0
   -2.5273    2.4554   -0.2189 C   0  0  0  0  0  0  0  0  0  0  0  0
   -2.5891    3.9830   -0.2989 C   0  0  0  0  0  0  0  0  0  0  0  0
   -1.1394    2.0184   -0.1023 N   0  0  0  0  0  0  0  0  0  0  0  0
   -0.4971    2.0007    1.1079 C   0  0  0  0  0  0  0  0  0  0  0  0
   -1.0143    2.2852    2.1780 O   0  0  0  0  0  0  0  0  0  0  0  0
    0.8080    1.6095    0.9609 N   0  0  0  0  0  0  0  0  0  0  0  0
    1.6117    1.3897    2.1399 C   0  0  0  0  0  0  0  0  0  0  0  0
    3.0353    1.0993    1.7550 C   0  0  0  0  0  0  0  0  0  0  0  0
    3.9640    2.1340    1.6194 C   0  0  0  0  0  0  0  0  0  0  0  0
    5.2538    1.8223    1.2221 C   0  0  0  0  0  0  0  0  0  0  0  0
    5.6737    0.5693    0.9453 N   0  0  0  0  0  0  0  0  0  0  0  0
    4.7610   -0.4335    1.0697 C   0  0  0  0  0  0  0  0  0  0  0  0
    5.1748   -1.7665    0.7689 N   0  0  0  0  0  0  0  0  0  0  0  0
    6.4360   -2.1582    0.3691 C   0  0  0  0  0  0  0  0  0  0  0  0
    6.4013   -3.5202    0.1940 C   0  0  0  0  0  0  0  0  0  0  0  0
    5.0811   -3.8797    0.5032 C   0  0  0  0  0  0  0  0  0  0  0  0
    4.3263   -2.8325    0.8431 N   0  0  0  0  0  0  0  0  0  0  0  0
    3.4435   -0.2087    1.4678 C   0  0  0  0  0  0  0  0  0  0  0  0
   -3.7647   -0.2839   -0.2941 C   0  0  0  0  0  0  0  0  0  0  0  0
   -3.4812   -2.5400    1.3405 H   0  0  0  0  0  0  0  0  0  0  0  0
   -4.7605   -3.4996    0.5766 H   0  0  0  0  0  0  0  0  0  0  0  0
   -5.1575   -1.9642    1.3618 H   0  0  0  0  0  0  0  0  0  0  0  0
   -5.1342   -1.7386   -1.1032 H   0  0  0  0  0  0  0  0  0  0  0  0
   -2.9228   -3.4822   -1.0436 H   0  0  0  0  0  0  0  0  0  0  0  0
   -3.6065   -2.6628   -2.4349 H   0  0  0  0  0  0  0  0  0  0  0  0
   -1.2080   -2.2098   -2.3326 H   0  0  0  0  0  0  0  0  0  0  0  0
   -1.3412   -1.6302   -0.6761 H   0  0  0  0  0  0  0  0  0  0  0  0
   -2.3577   -0.3324   -3.2316 H   0  0  0  0  0  0  0  0  0  0  0  0
   -1.2506    0.3127   -2.0394 H   0  0  0  0  0  0  0  0  0  0  0  0
   -4.2712    2.2082   -1.4662 H   0  0  0  0  0  0  0  0  0  0  0  0
   -2.7831    2.2090   -2.3746 H   0  0  0  0  0  0  0  0  0  0  0  0
   -3.0564    2.1548    0.6936 H   0  0  0  0  0  0  0  0  0  0  0  0
   -3.6260    4.3295   -0.3557 H   0  0  0  0  0  0  0  0  0  0  0  0
   -2.0545    4.3544   -1.1803 H   0  0  0  0  0  0  0  0  0  0  0  0
   -2.1295    4.4425    0.5828 H   0  0  0  0  0  0  0  0  0  0  0  0
   -0.5410    2.1963   -0.8947 H   0  0  0  0  0  0  0  0  0  0  0  0
    0.9555    0.9657    0.1976 H   0  0  0  0  0  0  0  0  0  0  0  0
    1.5545    2.2720    2.7888 H   0  0  0  0  0  0  0  0  0  0  0  0
    1.1835    0.5514    2.7030 H   0  0  0  0  0  0  0  0  0  0  0  0
    3.6884    3.1663    1.8133 H   0  0  0  0  0  0  0  0  0  0  0  0
    6.0049    2.5995    1.1069 H   0  0  0  0  0  0  0  0  0  0  0  0
    7.2281   -1.4310    0.2548 H   0  0  0  0  0  0  0  0  0  0  0  0
    7.2164   -4.1610   -0.1107 H   0  0  0  0  0  0  0  0  0  0  0  0
    4.6339   -4.8656    0.4952 H   0  0  0  0  0  0  0  0  0  0  0  0
    2.7391   -1.0328    1.5528 H   0  0  0  0  0  0  0  0  0  0  0  0
   -2.9795   -0.2434    0.4720 H   0  0  0  0  0  0  0  0  0  0  0  0
   -4.6372    0.2422    0.1155 H   0  0  0  0  0  0  0  0  0  0  0  0
  1  2  1  0
  2  3  1  0
  3  4  1  0
  4  5  1  0
  5  6  1  0
  6  7  1  0
  7  8  1  0
  8  9  1  0
  8 10  1  0
 10 11  1  0
 11 12  2  0
 11 13  1  0
 13 14  1  0
 14 15  1  0
 15 16  2  0
 16 17  1  0
 17 18  2  0
 18 19  1  0
 19 20  1  0
 20 21  1  0
 21 22  2  0
 22 23  1  0
 23 24  2  0
 19 25  2  0
  6 26  1  0
 26  2  1  0
 25 15  1  0
 24 20  1  0
  1 27  1  0
  1 28  1  0
  1 29  1  0
  2 30  1  0
  3 31  1  0
  3 32  1  0
  4 33  1  0
  4 34  1  0
  5 35  1  0
  5 36  1  0
  7 37  1  0
  7 38  1  0
  8 39  1  0
  9 40  1  0
  9 41  1  0
  9 42  1  0
 10 43  1  0
 13 44  1  0
 14 45  1  0
 14 46  1  0
 16 47  1  0
 17 48  1  0
 21 49  1  0
 22 50  1  0
 23 51  1  0
 25 52  1  0
 26 53  1  0
 26 54  1  0
M  END
$$$$
OCNT-2315085
     RDKit          3D

 44 46  0  0  0  0  0  0  0  0999 V2000
   -3.2755   -2.3640    0.1019 C   0  0  0  0  0  0  0  0  0  0  0  0
   -2.1840   -1.4603    0.4617 N   0  0  0  0  0  0  0  0  0  0  0  0
   -0.9071   -2.1565    0.1790 C   0  0  0  0  0  0  0  0  0  0  0  0
    0.3185   -1.3585    0.6281 C   0  0  0  0  0  0  0  0  0  0  0  0
    0.3392   -0.0255    0.0352 N   0  0  0  0  0  0  0  0  0  0  0  0
    1.5098    0.7664   -0.0140 C   0  0  0  0  0  0  0  0  0  0  0  0
    1.4123    1.9981    0.0119 O   0  0  0  0  0  0  0  0  0  0  0  0
    2.8159    0.1302   -0.1196 C   0  0  0  0  0  0  0  0  0  0  0  0
    3.1073   -1.1061   -0.4694 N   0  0  0  0  0  0  0  0  0  0  0  0
    4.4830   -1.2073   -0.4526 N   0  0  0  0  0  0  0  0  0  0  0  0
    4.9519   -0.0201   -0.1171 C   0  0  0  0  0  0  0  0  0  0  0  0
    6.4748    0.3322    0.0154 C   0  0  0  0  0  0  0  0  0  0  0  0
    6.9050    1.5964    0.3670 C   0  0  0  0  0  0  0  0  0  0  0  0
    8.6197    1.6338    0.4191 S   0  0  0  0  0  0  0  0  0  0  0  0
    8.6488   -0.0225   -0.0271 C   0  0  0  0  0  0  0  0  0  0  0  0
    7.4799   -0.5951   -0.2092 N   0  0  0  0  0  0  0  0  0  0  0  0
    3.9420    0.8838    0.1073 O   0  0  0  0  0  0  0  0  0  0  0  0
   -0.9308    0.6954    0.1560 C   0  0  0  0  0  0  0  0  0  0  0  0
   -2.2104   -0.1303   -0.2352 C   0  0  0  0  0  0  0  0  0  0  0  0
   -3.5257    0.7583   -0.0443 C   0  0  0  0  0  0  0  0  0  0  0  0
   -3.9359    0.8559    1.4381 C   0  0  0  0  0  0  0  0  0  0  0  0
   -3.3034    2.2060   -0.5583 C   0  0  0  0  0  0  0  0  0  0  0  0
   -4.7202    0.2209   -0.8684 C   0  0  0  0  0  0  0  0  0  0  0  0
   -4.2002   -2.0770    0.6048 H   0  0  0  0  0  0  0  0  0  0  0  0
   -3.4338   -2.4197   -0.9803 H   0  0  0  0  0  0  0  0  0  0  0  0
   -3.0819   -3.3827    0.4608 H   0  0  0  0  0  0  0  0  0  0  0  0
   -0.8263   -2.3744   -0.8946 H   0  0  0  0  0  0  0  0  0  0  0  0
   -0.8820   -3.1161    0.7105 H   0  0  0  0  0  0  0  0  0  0  0  0
    1.2088   -1.9332    0.3819 H   0  0  0  0  0  0  0  0  0  0  0  0
    0.3147   -1.2292    1.7178 H   0  0  0  0  0  0  0  0  0  0  0  0
    6.3147    2.4745    0.5881 H   0  0  0  0  0  0  0  0  0  0  0  0
    9.5807   -0.5596   -0.1498 H   0  0  0  0  0  0  0  0  0  0  0  0
   -0.9995    1.0473    1.1925 H   0  0  0  0  0  0  0  0  0  0  0  0
   -0.8565    1.5722   -0.4945 H   0  0  0  0  0  0  0  0  0  0  0  0
   -2.1187   -0.3290   -1.3140 H   0  0  0  0  0  0  0  0  0  0  0  0
   -4.1858   -0.1217    1.8605 H   0  0  0  0  0  0  0  0  0  0  0  0
   -3.1373    1.2887    2.0490 H   0  0  0  0  0  0  0  0  0  0  0  0
   -4.8202    1.4930    1.5582 H   0  0  0  0  0  0  0  0  0  0  0  0
   -4.2370    2.7816   -0.5478 H   0  0  0  0  0  0  0  0  0  0  0  0
   -2.9295    2.2047   -1.5882 H   0  0  0  0  0  0  0  0  0  0  0  0
   -2.5999    2.7629    0.0696 H   0  0  0  0  0  0  0  0  0  0  0  0
   -5.1875   -0.6619   -0.4328 H   0  0  0  0  0  0  0  0  0  0  0  0
   -5.5222    0.9666   -0.9345 H   0  0  0  0  0  0  0  0  0  0  0  0
   -4.4154   -0.0182   -1.8930 H   0  0  0  0  0  0  0  0  0  0  0  0
  1  2  1  0
  2  3  1  0
  3  4  1  0
  4  5  1  0
  5  6  1  0
  6  7  2  0
  6  8  1  0
  8  9  2  0
  9 10  1  0
 10 11  2  0
 11 12  1  0
 12 13  2  0
 13 14  1  0
 14 15  1  0
 15 16  2  0
 11 17  1  0
  5 18  1  0
 18 19  1  0
 19 20  1  0
 20 21  1  0
 20 22  1  0
 20 23  1  0
 19  2  1  0
 17  8  1  0
 16 12  1  0
  1 24  1  0
  1 25  1  0
  1 26  1  0
  3 27  1  0
  3 28  1  0
  4 29  1  0
  4 30  1  0
 13 31  1  0
 15 32  1  0
 18 33  1  0
 18 34  1  0
 19 35  1  0
 21 36  1  0
 21 37  1  0
 21 38  1  0
 22 39  1  0
 22 40  1  0
 22 41  1  0
 23 42  1  0
 23 43  1  0
 23 44  1  0
M  END
$$$$
OCNT-2315097
     RDKit          3D

 44 47  0  0  0  0  0  0  0  0999 V2000
   -3.9816    2.2087    0.5880 C   0  0  0  0  0  0  0  0  0  0  0  0
   -4.5370    0.9030    0.3292 N   0  0  0  0  0  0  0  0  0  0  0  0
   -5.6947    0.4129    0.8672 C   0  0  0  0  0  0  0  0  0  0  0  0
   -5.8138   -0.8580    0.3610 C   0  0  0  0  0  0  0  0  0  0  0  0
   -4.7645   -1.1505   -0.4685 N   0  0  0  0  0  0  0  0  0  0  0  0
   -3.9985   -0.0733   -0.4780 C   0  0  0  0  0  0  0  0  0  0  0  0
   -2.7213    0.0866   -1.2540 C   0  0  0  0  0  0  0  0  0  0  0  0
   -1.5431    0.3236   -0.3960 N   0  0  0  0  0  0  0  0  0  0  0  0
   -0.3620    0.6874   -1.1897 C   0  0  0  0  0  0  0  0  0  0  0  0
    0.5454   -0.4833   -1.5623 C   0  0  0  0  0  0  0  0  0  0  0  0
    0.9818   -1.3074   -0.3381 C   0  0  0  0  0  0  0  0  0  0  0  0
    2.4707   -1.2702   -0.0917 C   0  0  0  0  0  0  0  0  0  0  0  0
    3.3184   -2.3514   -0.2595 C   0  0  0  0  0  0  0  0  0  0  0  0
    4.5929   -1.9600    0.0384 N   0  0  0  0  0  0  0  0  0  0  0  0
    4.6104   -0.6352    0.4002 C   0  0  0  0  0  0  0  0  0  0  0  0
    5.6887    0.1749    0.7788 C   0  0  0  0  0  0  0  0  0  0  0  0
    5.4197    1.5061    1.1033 C   0  0  0  0  0  0  0  0  0  0  0  0
    4.1218    2.0035    1.0519 C   0  0  0  0  0  0  0  0  0  0  0  0
    3.0563    1.1785    0.6707 C   0  0  0  0  0  0  0  0  0  0  0  0
    3.2944   -0.1711    0.3336 C   0  0  0  0  0  0  0  0  0  0  0  0
    0.1531   -0.9770    0.9094 C   0  0  0  0  0  0  0  0  0  0  0  0
   -1.3142   -0.8120    0.5175 C   0  0  0  0  0  0  0  0  0  0  0  0
   -4.7455    2.8407    1.0490 H   0  0  0  0  0  0  0  0  0  0  0  0
   -3.1353    2.0963    1.2697 H   0  0  0  0  0  0  0  0  0  0  0  0
   -3.6659    2.6582   -0.3564 H   0  0  0  0  0  0  0  0  0  0  0  0
   -6.3139    0.9831    1.5448 H   0  0  0  0  0  0  0  0  0  0  0  0
   -6.5988   -1.5782    0.5504 H   0  0  0  0  0  0  0  0  0  0  0  0
   -2.8630    0.9360   -1.9347 H   0  0  0  0  0  0  0  0  0  0  0  0
   -2.5672   -0.7976   -1.8860 H   0  0  0  0  0  0  0  0  0  0  0  0
    0.2143    1.4118   -0.6044 H   0  0  0  0  0  0  0  0  0  0  0  0
   -0.6467    1.2333   -2.0980 H   0  0  0  0  0  0  0  0  0  0  0  0
    1.4095   -0.1107   -2.1260 H   0  0  0  0  0  0  0  0  0  0  0  0
   -0.0018   -1.1398   -2.2524 H   0  0  0  0  0  0  0  0  0  0  0  0
    0.7456   -2.3535   -0.5903 H   0  0  0  0  0  0  0  0  0  0  0  0
    3.1162   -3.3682   -0.5694 H   0  0  0  0  0  0  0  0  0  0  0  0
    5.4097   -2.5533   -0.0011 H   0  0  0  0  0  0  0  0  0  0  0  0
    6.7012   -0.2128    0.8215 H   0  0  0  0  0  0  0  0  0  0  0  0
    6.2354    2.1601    1.4022 H   0  0  0  0  0  0  0  0  0  0  0  0
    3.9296    3.0413    1.3120 H   0  0  0  0  0  0  0  0  0  0  0  0
    2.0530    1.5879    0.6471 H   0  0  0  0  0  0  0  0  0  0  0  0
    0.2524   -1.7860    1.6441 H   0  0  0  0  0  0  0  0  0  0  0  0
    0.5058   -0.0677    1.4093 H   0  0  0  0  0  0  0  0  0  0  0  0
   -1.9083   -0.6599    1.4261 H   0  0  0  0  0  0  0  0  0  0  0  0
   -1.6492   -1.7569    0.0680 H   0  0  0  0  0  0  0  0  0  0  0  0
  1  2  1  0
  2  3  1  0
  3  4  2  0
  4  5  1  0
  5  6  2  0
  6  7  1  0
  7  8  1  0
  8  9  1  0
  9 10  1  0
 10 11  1  0
 11 12  1  0
 12 13  2  0
 13 14  1  0
 14 15  1  0
 15 16  2  0
 16 17  1  0
 17 18  2  0
 18 19  1  0
 19 20  2  0
 11 21  1  0
 21 22  1  0
  6  2  1  0
 22  8  1  0
 20 12  1  0
 20 15  1  0
  1 23  1  0
  1 24  1  0
  1 25  1  0
  3 26  1  0
  4 27  1  0
  7 28  1  0
  7 29  1  0
  9 30  1  0
  9 31  1  0
 10 32  1  0
 10 33  1  0
 11 34  1  0
 13 35  1  0
 14 36  1  0
 16 37  1  0
 17 38  1  0
 18 39  1  0
 19 40  1  0
 21 41  1  0
 21 42  1  0
 22 43  1  0
 22 44  1  0
M  END
$$$$
OCNT-2315100
     RDKit          3D

 47 50  0  0  0  0  0  0  0  0999 V2000
    5.0403    0.9375   -2.0527 C   0  0  0  0  0  0  0  0  0  0  0  0
    3.9943    1.3134   -1.0574 C   0  0  0  0  0  0  0  0  0  0  0  0
    2.7951    0.7409   -0.7905 C   0  0  0  0  0  0  0  0  0  0  0  0
    2.1933   -0.4681   -1.4469 C   0  0  0  0  0  0  0  0  0  0  0  0
    2.7788   -1.0416   -2.3585 O   0  0  0  0  0  0  0  0  0  0  0  0
    0.9742   -0.8350   -0.9330 N   0  0  0  0  0  0  0  0  0  0  0  0
    0.1522   -1.9255   -1.2914 C   0  0  0  0  0  0  0  0  0  0  0  0
    0.4778   -2.8730   -2.2569 C   0  0  0  0  0  0  0  0  0  0  0  0
   -0.4016   -3.9233   -2.5017 C   0  0  0  0  0  0  0  0  0  0  0  0
   -1.5745   -3.9857   -1.7697 C   0  0  0  0  0  0  0  0  0  0  0  0
   -1.9278   -3.0831   -0.8292 N   0  0  0  0  0  0  0  0  0  0  0  0
   -1.0731   -2.0623   -0.5949 C   0  0  0  0  0  0  0  0  0  0  0  0
   -1.4145   -1.0509    0.3506 N   0  0  0  0  0  0  0  0  0  0  0  0
   -2.0321   -1.6330    1.5560 C   0  0  0  0  0  0  0  0  0  0  0  0
   -2.6525   -0.5161    2.3903 C   0  0  0  0  0  0  0  0  0  0  0  0
   -3.8209    0.1447    1.6318 C   0  0  0  0  0  0  0  0  0  0  0  0
   -3.9976    1.6046    2.0626 C   0  0  0  0  0  0  0  0  0  0  0  0
   -4.2311    1.6876    3.4620 O   0  0  0  0  0  0  0  0  0  0  0  0
   -3.6524    0.0214    0.1068 C   0  0  0  0  0  0  0  0  0  0  0  0
   -2.1830    0.0246   -0.3112 C   0  0  0  0  0  0  0  0  0  0  0  0
    1.8968    1.5723    0.5121 S   0  0  0  0  0  0  0  0  0  0  0  0
    3.2062    2.6898    0.6557 C   0  0  0  0  0  0  0  0  0  0  0  0
    3.4477    3.7225    1.4137 N   0  0  0  0  0  0  0  0  0  0  0  0
    4.6923    4.1401    0.9873 C   0  0  0  0  0  0  0  0  0  0  0  0
    5.1784    3.3392   -0.0329 C   0  0  0  0  0  0  0  0  0  0  0  0
    4.2009    2.4067   -0.2293 N   0  0  0  0  0  0  0  0  0  0  0  0
    5.9616    0.6429   -1.5384 H   0  0  0  0  0  0  0  0  0  0  0  0
    4.7527    0.1111   -2.7029 H   0  0  0  0  0  0  0  0  0  0  0  0
    5.2706    1.7876   -2.7044 H   0  0  0  0  0  0  0  0  0  0  0  0
    0.5844   -0.2871   -0.1665 H   0  0  0  0  0  0  0  0  0  0  0  0
    1.4013   -2.8237   -2.8225 H   0  0  0  0  0  0  0  0  0  0  0  0
   -0.1723   -4.6768   -3.2468 H   0  0  0  0  0  0  0  0  0  0  0  0
   -2.2873   -4.7907   -1.9269 H   0  0  0  0  0  0  0  0  0  0  0  0
   -1.2557   -2.1359    2.1457 H   0  0  0  0  0  0  0  0  0  0  0  0
   -2.8090   -2.3742    1.3279 H   0  0  0  0  0  0  0  0  0  0  0  0
   -1.8790    0.2256    2.6301 H   0  0  0  0  0  0  0  0  0  0  0  0
   -3.0135   -0.9166    3.3451 H   0  0  0  0  0  0  0  0  0  0  0  0
   -4.7394   -0.3925    1.9074 H   0  0  0  0  0  0  0  0  0  0  0  0
   -4.8481    2.0659    1.5491 H   0  0  0  0  0  0  0  0  0  0  0  0
   -3.1058    2.1975    1.8325 H   0  0  0  0  0  0  0  0  0  0  0  0
   -5.0510    1.1997    3.6530 H   0  0  0  0  0  0  0  0  0  0  0  0
   -4.1920    0.8231   -0.4116 H   0  0  0  0  0  0  0  0  0  0  0  0
   -4.1119   -0.9197   -0.2244 H   0  0  0  0  0  0  0  0  0  0  0  0
   -1.7291    0.9813   -0.0239 H   0  0  0  0  0  0  0  0  0  0  0  0
   -2.1157   -0.0244   -1.4063 H   0  0  0  0  0  0  0  0  0  0  0  0
    5.1750    4.9986    1.4384 H   0  0  0  0  0  0  0  0  0  0  0  0
    6.0967    3.3607   -0.6014 H   0  0  0  0  0  0  0  0  0  0  0  0
  1  2  1  0
  2  3  2  0
  3  4  1  0
  4  5  2  0
  4  6  1  0
  6  7  1  0
  7  8  1  0
  8  9  2  0
  9 10  1  0
 10 11  2  0
 11 12  1  0
 12 13  1  0
 13 14  1  0
 14 15  1  0
 15 16  1  0
 16 17  1  0
 17 18  1  0
 16 19  1  0
 19 20  1  0
  3 21  1  0
 21 22  1  0
 22 23  2  0
 23 24  1  0
 24 25  2  0
 25 26  1  0
 26  2  1  0
 12  7  2  0
 20 13  1  0
 26 22  1  0
  1 27  1  0
  1 28  1  0
  1 29  1  0
  6 30  1  0
  8 31  1  0
  9 32  1  0
 10 33  1  0
 14 34  1  0
 14 35  1  0
 15 36  1  0
 15 37  1  0
 16 38  1  0
 17 39  1  0
 17 40  1  0
 18 41  1  0
 19 42  1  0
 19 43  1  0
 20 44  1  0
 20 45  1  0
 24 46  1  0
 25 47  1  0
M  END
$$$$
OCNT-2315105
     RDKit          3D

  0  0  0  0  0  0  0  0  0  0999 V3000
M  V30 BEGIN CTAB
M  V30 COUNTS 41 44 0 0 0
M  V30 BEGIN ATOM
M  V30 1 O 0.259462 2.058658 1.679366 0
M  V30 2 C 0.381506 1.433319 0.630016 0
M  V30 3 N -0.619892 1.347468 -0.297168 0
M  V30 4 C -1.896438 1.999815 -0.113954 0
M  V30 5 C -2.952360 0.979169 0.213732 0 CFG=2
M  V30 6 C -2.954612 0.425518 1.612263 0
M  V30 7 N -2.883468 -1.036916 1.426563 0
M  V30 8 C -3.489953 -1.374962 0.126755 0
M  V30 9 C -3.310732 -0.152601 -0.715381 0 CFG=2
M  V30 10 C -2.665860 -0.388725 -2.035760 0
M  V30 11 F -2.515586 0.757302 -2.742814 0
M  V30 12 F -3.408171 -1.234883 -2.785735 0
M  V30 13 F -1.433587 -0.934234 -1.896077 0
M  V30 14 C -4.267627 1.014622 -0.542248 0
M  V30 15 N 1.520554 0.743767 0.316038 0
M  V30 16 C 2.647302 0.740793 1.246192 0
M  V30 17 C 3.630004 -0.188119 0.608513 0
M  V30 18 C 4.894355 -0.544099 1.045621 0
M  V30 19 C 5.629967 -1.445663 0.273003 0
M  V30 20 C 5.096384 -1.975090 -0.913551 0
M  V30 21 C 3.819083 -1.610843 -1.345951 0
M  V30 22 C 3.098406 -0.715499 -0.574162 0
M  V30 23 C 1.727186 -0.170695 -0.807863 0
M  V30 24 H -0.351801 1.123025 -1.241995 0
M  V30 25 H -1.842140 2.756162 0.676286 0
M  V30 26 H -2.122203 2.526181 -1.047504 0
M  V30 27 H -3.879062 0.690198 2.137328 0
M  V30 28 H -2.113429 0.768998 2.221119 0
M  V30 29 H -1.891028 -1.276250 1.382376 0
M  V30 30 H -3.002698 -2.262833 -0.289627 0
M  V30 31 H -4.552496 -1.606450 0.260008 0
M  V30 32 H -5.188595 0.851570 0.008626 0
M  V30 33 H -4.380962 1.718297 -1.360731 0
M  V30 34 H 3.040506 1.758115 1.335295 0
M  V30 35 H 2.313557 0.369469 2.220354 0
M  V30 36 H 5.307052 -0.137393 1.963372 0
M  V30 37 H 6.626083 -1.742702 0.592916 0
M  V30 38 H 5.685436 -2.676608 -1.499819 0
M  V30 39 H 3.408964 -2.022744 -2.262345 0
M  V30 40 H 1.670003 0.391541 -1.744509 0
M  V30 41 H 0.966888 -0.956677 -0.776795 0
M  V30 END ATOM
M  V30 BEGIN BOND
M  V30 1 2 1 2
M  V30 2 1 2 3
M  V30 3 1 3 4
M  V30 4 1 5 4 CFG=3
M  V30 5 1 5 6
M  V30 6 1 6 7
M  V30 7 1 7 8
M  V30 8 1 8 9
M  V30 9 1 9 10 CFG=3
M  V30 10 1 10 11
M  V30 11 1 10 12
M  V30 12 1 10 13
M  V30 13 1 9 14
M  V30 14 1 2 15
M  V30 15 1 15 16
M  V30 16 1 16 17
M  V30 17 2 17 18
M  V30 18 1 18 19
M  V30 19 2 19 20
M  V30 20 1 20 21
M  V30 21 2 21 22
M  V30 22 1 22 23
M  V30 23 1 9 5
M  V30 24 1 23 15
M  V30 25 1 14 5
M  V30 26 1 22 17
M  V30 27 1 3 24
M  V30 28 1 4 25
M  V30 29 1 4 26
M  V30 30 1 6 27
M  V30 31 1 6 28
M  V30 32 1 7 29
M  V30 33 1 8 30
M  V30 34 1 8 31
M  V30 35 1 14 32
M  V30 36 1 14 33
M  V30 37 1 16 34
M  V30 38 1 16 35
M  V30 39 1 18 36
M  V30 40 1 19 37
M  V30 41 1 20 38
M  V30 42 1 21 39
M  V30 43 1 23 40
M  V30 44 1 23 41
M  V30 END BOND
M  V30 BEGIN COLLECTION
M  V30 MDLV30/STERAC1 ATOMS=(2 5 9)
M  V30 END COLLECTION
M  V30 END CTAB
M  END
>  <_CXSMILES_Data>  (935) 
|&1:4,8|

$$$$
OCNT-2315122
     RDKit          3D

 46 48  0  0  0  0  0  0  0  0999 V2000
    3.0446    2.7975    0.8295 C   0  0  0  0  0  0  0  0  0  0  0  0
    2.7940    1.4413    0.4230 N   0  0  0  0  0  0  0  0  0  0  0  0
    3.4161    0.8829   -0.6686 C   0  0  0  0  0  0  0  0  0  0  0  0
    4.2940    1.4612   -1.3026 O   0  0  0  0  0  0  0  0  0  0  0  0
    3.0030   -0.4978   -1.0530 C   0  0  0  0  0  0  0  0  0  0  0  0
    3.8965   -1.2232   -1.8566 C   0  0  0  0  0  0  0  0  0  0  0  0
    3.6039   -2.5310   -2.2205 C   0  0  0  0  0  0  0  0  0  0  0  0
    2.4207   -3.0758   -1.7664 C   0  0  0  0  0  0  0  0  0  0  0  0
    1.5305   -2.4075   -1.0005 N   0  0  0  0  0  0  0  0  0  0  0  0
    1.8090   -1.1237   -0.6486 C   0  0  0  0  0  0  0  0  0  0  0  0
    0.8162   -0.4128    0.0983 N   0  0  0  0  0  0  0  0  0  0  0  0
    0.2453   -1.2752    1.1539 C   0  0  0  0  0  0  0  0  0  0  0  0
   -1.0419   -1.9969    0.7579 C   0  0  0  0  0  0  0  0  0  0  0  0
   -2.2783   -1.1414    0.9414 C   0  0  0  0  0  0  0  0  0  0  0  0
   -3.3709   -1.7656    1.5876 C   0  0  0  0  0  0  0  0  0  0  0  0
   -4.5429   -1.0747    1.8770 C   0  0  0  0  0  0  0  0  0  0  0  0
   -4.6458    0.2596    1.5283 C   0  0  0  0  0  0  0  0  0  0  0  0
   -3.5873    0.8851    0.8677 C   0  0  0  0  0  0  0  0  0  0  0  0
   -2.3913    0.2043    0.5250 C   0  0  0  0  0  0  0  0  0  0  0  0
   -1.3116    0.9850   -0.2628 C   0  0  0  0  0  0  0  0  0  0  0  0
   -0.7246    2.0963    0.6348 C   0  0  0  0  0  0  0  0  0  0  0  0
   -1.9815    1.6730   -1.4914 C   0  0  0  0  0  0  0  0  0  0  0  0
   -0.1566    0.1352   -0.8802 C   0  0  0  0  0  0  0  0  0  0  0  0
    2.6552    2.9358    1.8406 H   0  0  0  0  0  0  0  0  0  0  0  0
    4.1177    3.0058    0.8087 H   0  0  0  0  0  0  0  0  0  0  0  0
    2.5322    3.4718    0.1384 H   0  0  0  0  0  0  0  0  0  0  0  0
    1.9628    0.9593    0.7656 H   0  0  0  0  0  0  0  0  0  0  0  0
    4.8276   -0.7685   -2.1889 H   0  0  0  0  0  0  0  0  0  0  0  0
    4.2852   -3.1074   -2.8362 H   0  0  0  0  0  0  0  0  0  0  0  0
    2.1418   -4.0960   -2.0158 H   0  0  0  0  0  0  0  0  0  0  0  0
    0.9889   -2.0107    1.4926 H   0  0  0  0  0  0  0  0  0  0  0  0
    0.0644   -0.6470    2.0357 H   0  0  0  0  0  0  0  0  0  0  0  0
   -1.1201   -2.8716    1.4176 H   0  0  0  0  0  0  0  0  0  0  0  0
   -1.0230   -2.3965   -0.2612 H   0  0  0  0  0  0  0  0  0  0  0  0
   -3.3053   -2.8106    1.8873 H   0  0  0  0  0  0  0  0  0  0  0  0
   -5.3631   -1.5755    2.3832 H   0  0  0  0  0  0  0  0  0  0  0  0
   -5.5479    0.8183    1.7618 H   0  0  0  0  0  0  0  0  0  0  0  0
   -3.7177    1.9366    0.6202 H   0  0  0  0  0  0  0  0  0  0  0  0
   -0.2746    1.6896    1.5464 H   0  0  0  0  0  0  0  0  0  0  0  0
    0.0436    2.6660    0.1013 H   0  0  0  0  0  0  0  0  0  0  0  0
   -1.4901    2.8138    0.9514 H   0  0  0  0  0  0  0  0  0  0  0  0
   -1.2393    2.1889   -2.1131 H   0  0  0  0  0  0  0  0  0  0  0  0
   -2.4917    0.9365   -2.1238 H   0  0  0  0  0  0  0  0  0  0  0  0
   -2.7164    2.4330   -1.2076 H   0  0  0  0  0  0  0  0  0  0  0  0
   -0.5796   -0.6561   -1.5157 H   0  0  0  0  0  0  0  0  0  0  0  0
    0.4084    0.7886   -1.5619 H   0  0  0  0  0  0  0  0  0  0  0  0
  1  2  1  0
  2  3  1  0
  3  4  2  0
  3  5  1  0
  5  6  1  0
  6  7  2  0
  7  8  1  0
  8  9  2  0
  9 10  1  0
 10 11  1  0
 11 12  1  0
 12 13  1  0
 13 14  1  0
 14 15  2  0
 15 16  1  0
 16 17  2  0
 17 18  1  0
 18 19  2  0
 19 20  1  0
 20 21  1  0
 20 22  1  0
 20 23  1  0
 10  5  2  0
 23 11  1  0
 19 14  1  0
  1 24  1  0
  1 25  1  0
  1 26  1  0
  2 27  1  0
  6 28  1  0
  7 29  1  0
  8 30  1  0
 12 31  1  0
 12 32  1  0
 13 33  1  0
 13 34  1  0
 15 35  1  0
 16 36  1  0
 17 37  1  0
 18 38  1  0
 21 39  1  0
 21 40  1  0
 21 41  1  0
 22 42  1  0
 22 43  1  0
 22 44  1  0
 23 45  1  0
 23 46  1  0
M  END
$$$$
OCNT-2315124
     RDKit          3D

 35 36  0  0  0  0  0  0  0  0999 V2000
    5.3937   -1.7430   -1.4879 C   0  0  0  0  0  0  0  0  0  0  0  0
    4.6638   -0.7410   -0.7838 O   0  0  0  0  0  0  0  0  0  0  0  0
    3.4271   -1.1399   -0.3601 C   0  0  0  0  0  0  0  0  0  0  0  0
    2.9582   -2.2566   -0.5629 O   0  0  0  0  0  0  0  0  0  0  0  0
    2.6940   -0.0923    0.3682 C   0  0  0  0  0  0  0  0  0  0  0  0
    3.1690    1.1527    0.5718 N   0  0  0  0  0  0  0  0  0  0  0  0
    2.2015    1.7686    1.2731 N   0  0  0  0  0  0  0  0  0  0  0  0
    1.1043    0.9944    1.5066 C   0  0  0  0  0  0  0  0  0  0  0  0
   -0.2659    1.6602    2.3675 S   0  0  0  0  0  0  0  0  0  0  0  0
   -0.2564    0.9688    3.6329 O   0  0  0  0  0  0  0  0  0  0  0  0
   -0.0943    3.0902    2.2503 O   0  0  0  0  0  0  0  0  0  0  0  0
   -1.6381    1.1916    1.5218 N   0  0  0  0  0  0  0  0  0  0  0  0
   -1.8452    1.8121    0.1912 C   0  0  0  0  0  0  0  0  0  0  0  0
   -2.9389    1.0820   -0.6132 C   0  0  0  0  0  0  0  0  0  0  0  0
   -4.2831    1.0685    0.1168 C   0  0  0  0  0  0  0  0  0  0  0  0
   -2.5012   -0.3243   -0.9496 C   0  0  0  0  0  0  0  0  0  0  0  0
   -1.9093   -1.1395   -0.0959 N   0  0  0  0  0  0  0  0  0  0  0  0
   -1.6398   -2.3448   -0.7169 C   0  0  0  0  0  0  0  0  0  0  0  0
   -2.0200   -2.4319   -2.0377 C   0  0  0  0  0  0  0  0  0  0  0  0
   -2.7480   -0.9620   -2.5289 S   0  0  0  0  0  0  0  0  0  0  0  0
    1.4022   -0.2284    0.9437 C   0  0  0  0  0  0  0  0  0  0  0  0
    6.3612   -1.3206   -1.7734 H   0  0  0  0  0  0  0  0  0  0  0  0
    5.5719   -2.6113   -0.8459 H   0  0  0  0  0  0  0  0  0  0  0  0
    4.8625   -2.0363   -2.3988 H   0  0  0  0  0  0  0  0  0  0  0  0
    2.3329    2.7378    1.5523 H   0  0  0  0  0  0  0  0  0  0  0  0
   -1.6932    0.1633    1.4831 H   0  0  0  0  0  0  0  0  0  0  0  0
   -2.1326    2.8597    0.3358 H   0  0  0  0  0  0  0  0  0  0  0  0
   -0.9096    1.7890   -0.3797 H   0  0  0  0  0  0  0  0  0  0  0  0
   -3.0732    1.6467   -1.5457 H   0  0  0  0  0  0  0  0  0  0  0  0
   -4.5945    2.0861    0.3753 H   0  0  0  0  0  0  0  0  0  0  0  0
   -5.0639    0.6304   -0.5153 H   0  0  0  0  0  0  0  0  0  0  0  0
   -4.2440    0.4788    1.0394 H   0  0  0  0  0  0  0  0  0  0  0  0
   -1.1559   -3.1366   -0.1568 H   0  0  0  0  0  0  0  0  0  0  0  0
   -1.9082   -3.2655   -2.7162 H   0  0  0  0  0  0  0  0  0  0  0  0
    0.7731   -1.1080    0.9389 H   0  0  0  0  0  0  0  0  0  0  0  0
  1  2  1  0
  2  3  1  0
  3  4  2  0
  3  5  1  0
  5  6  2  0
  6  7  1  0
  7  8  1  0
  8  9  1  0
  9 10  2  0
  9 11  2  0
  9 12  1  0
 12 13  1  0
 13 14  1  0
 14 15  1  0
 14 16  1  0
 16 17  2  0
 17 18  1  0
 18 19  2  0
 19 20  1  0
  8 21  2  0
 21  5  1  0
 20 16  1  0
  1 22  1  0
  1 23  1  0
  1 24  1  0
  7 25  1  0
 12 26  1  0
 13 27  1  0
 13 28  1  0
 14 29  1  0
 15 30  1  0
 15 31  1  0
 15 32  1  0
 18 33  1  0
 19 34  1  0
 21 35  1  0
M  END
$$$$
OCNT-2315125
     RDKit          3D

  0  0  0  0  0  0  0  0  0  0999 V3000
M  V30 BEGIN CTAB
M  V30 COUNTS 44 48 0 0 0
M  V30 BEGIN ATOM
M  V30 1 C 6.304379 1.294158 1.069983 0
M  V30 2 C 5.857441 1.882344 -0.110547 0
M  V30 3 C 4.707384 1.401935 -0.740414 0
M  V30 4 C 3.984799 0.328345 -0.195496 0
M  V30 5 C 2.739855 -0.183188 -0.903953 0 CFG=2
M  V30 6 C 1.483395 -0.050090 -0.023641 0
M  V30 7 C 0.308432 -0.790778 -0.669930 0 CFG=2
M  V30 8 C -0.928064 -0.664782 0.149414 0
M  V30 9 N -2.088866 -0.139395 -0.170258 0
M  V30 10 C -2.814365 -0.314794 0.979852 0
M  V30 11 C -4.276961 0.143555 1.121506 0
M  V30 12 C -5.082172 0.010363 2.234882 0
M  V30 13 N -6.336141 0.531955 2.011167 0
M  V30 14 C -6.279846 0.972997 0.774235 0
M  V30 15 C -7.310978 1.618440 0.009077 0
M  V30 16 N -7.112910 2.007959 -1.223329 0
M  V30 17 C -5.862511 1.775453 -1.773696 0
M  V30 18 C -4.848360 1.178326 -1.122051 0
M  V30 19 N -5.056821 0.765475 0.183219 0
M  V30 20 N -2.148382 -0.918210 1.973098 0
M  V30 21 O -0.889241 -1.152799 1.423760 0
M  V30 22 C 0.652159 -2.263515 -0.953649 0
M  V30 23 C 2.142910 -2.560914 -0.801778 0
M  V30 24 N 2.943316 -1.533820 -1.448639 0
M  V30 25 C 4.454181 -0.258320 0.991279 0
M  V30 26 C 5.604230 0.223410 1.620121 0
M  V30 27 H 7.199660 1.668377 1.559480 0
M  V30 28 H 6.405513 2.715260 -0.543558 0
M  V30 29 H 4.380549 1.873198 -1.665129 0
M  V30 30 H 2.572837 0.454867 -1.782203 0
M  V30 31 H 1.659692 -0.443605 0.986445 0
M  V30 32 H 1.237150 1.012253 0.108762 0
M  V30 33 H 0.103711 -0.306408 -1.635460 0
M  V30 34 H -4.823260 -0.434994 3.188091 0
M  V30 35 H -8.292549 1.786407 0.480016 0
M  V30 36 H -5.731501 2.111389 -2.799920 0
M  V30 37 H -3.879144 1.006107 -1.570481 0
M  V30 38 H 0.093165 -2.948618 -0.303898 0
M  V30 39 H 0.336547 -2.502226 -1.978407 0
M  V30 40 H 2.360217 -3.530599 -1.263414 0
M  V30 41 H 2.411583 -2.654969 0.256895 0
M  V30 42 H 3.935334 -1.772209 -1.417889 0
M  V30 43 H 3.929176 -1.099497 1.436935 0
M  V30 44 H 5.954457 -0.238841 2.539520 0
M  V30 END ATOM
M  V30 BEGIN BOND
M  V30 1 2 1 2
M  V30 2 1 2 3
M  V30 3 2 3 4
M  V30 4 1 4 5
M  V30 5 1 5 6
M  V30 6 1 6 7
M  V30 7 1 7 8
M  V30 8 2 8 9
M  V30 9 1 9 10
M  V30 10 1 10 11
M  V30 11 2 11 12
M  V30 12 1 12 13
M  V30 13 2 13 14
M  V30 14 1 14 15
M  V30 15 2 15 16
M  V30 16 1 16 17
M  V30 17 2 17 18
M  V30 18 1 18 19
M  V30 19 2 10 20
M  V30 20 1 20 21
M  V30 21 1 7 22
M  V30 22 1 22 23
M  V30 23 1 23 24
M  V30 24 1 4 25
M  V30 25 2 25 26
M  V30 26 1 26 1
M  V30 27 1 24 5
M  V30 28 1 21 8
M  V30 29 1 19 11
M  V30 30 1 19 14
M  V30 31 1 1 27
M  V30 32 1 2 28
M  V30 33 1 3 29
M  V30 34 1 5 30 CFG=3
M  V30 35 1 6 31
M  V30 36 1 6 32
M  V30 37 1 7 33 CFG=3
M  V30 38 1 12 34
M  V30 39 1 15 35
M  V30 40 1 17 36
M  V30 41 1 18 37
M  V30 42 1 22 38
M  V30 43 1 22 39
M  V30 44 1 23 40
M  V30 45 1 23 41
M  V30 46 1 24 42
M  V30 47 1 25 43
M  V30 48 1 26 44
M  V30 END BOND
M  V30 BEGIN COLLECTION
M  V30 MDLV30/STERAC1 ATOMS=(2 5 7)
M  V30 END COLLECTION
M  V30 END CTAB
M  END
>  <_CXSMILES_Data>  (938) 
|&1:4,6|

$$$$
OCNT-2315127
     RDKit          3D

 46 47  0  0  0  0  0  0  0  0999 V2000
   -3.6385   -2.4797    0.6129 C   0  0  0  0  0  0  0  0  0  0  0  0
   -2.4654   -1.5079    0.5547 C   0  0  0  0  0  0  0  0  0  0  0  0
   -2.7153   -0.3150   -0.3976 C   0  0  0  0  0  0  0  0  0  0  0  0
   -1.4473    0.5445   -0.5634 C   0  0  0  0  0  0  0  0  0  0  0  0
   -0.3847   -0.1175   -1.4206 C   0  0  0  0  0  0  0  0  0  0  0  0
   -0.5531   -1.1609   -2.0406 O   0  0  0  0  0  0  0  0  0  0  0  0
    0.7975    0.5916   -1.4502 N   0  0  0  0  0  0  0  0  0  0  0  0
    1.9635    0.0877   -2.1385 C   0  0  0  0  0  0  0  0  0  0  0  0
    2.8706   -0.6462   -1.1944 C   0  0  0  0  0  0  0  0  0  0  0  0
    2.6520   -1.9890   -0.8978 C   0  0  0  0  0  0  0  0  0  0  0  0
    3.4171   -2.7089   -0.0452 N   0  0  0  0  0  0  0  0  0  0  0  0
    4.4477   -2.0607    0.5504 C   0  0  0  0  0  0  0  0  0  0  0  0
    4.7474   -0.7226    0.3350 C   0  0  0  0  0  0  0  0  0  0  0  0
    5.8979   -0.1351    1.0551 C   0  0  0  0  0  0  0  0  0  0  0  0
    6.6028   -0.7634    1.8277 O   0  0  0  0  0  0  0  0  0  0  0  0
    6.0410    1.1750    0.7328 O   0  0  0  0  0  0  0  0  0  0  0  0
    7.1379    1.8154    1.3877 C   0  0  0  0  0  0  0  0  0  0  0  0
    3.9386   -0.0056   -0.5530 C   0  0  0  0  0  0  0  0  0  0  0  0
   -3.8674    0.5659    0.0727 C   0  0  0  0  0  0  0  0  0  0  0  0
   -4.9763    0.7627   -0.7645 C   0  0  0  0  0  0  0  0  0  0  0  0
   -6.0401    1.5712   -0.3599 C   0  0  0  0  0  0  0  0  0  0  0  0
   -6.0091    2.1946    0.8851 C   0  0  0  0  0  0  0  0  0  0  0  0
   -4.9144    2.0105    1.7264 C   0  0  0  0  0  0  0  0  0  0  0  0
   -3.8493    1.2026    1.3235 C   0  0  0  0  0  0  0  0  0  0  0  0
   -3.8870   -2.8540   -0.3853 H   0  0  0  0  0  0  0  0  0  0  0  0
   -3.3824   -3.3387    1.2415 H   0  0  0  0  0  0  0  0  0  0  0  0
   -4.5303   -2.0108    1.0392 H   0  0  0  0  0  0  0  0  0  0  0  0
   -2.2396   -1.1599    1.5696 H   0  0  0  0  0  0  0  0  0  0  0  0
   -1.5847   -2.0685    0.2203 H   0  0  0  0  0  0  0  0  0  0  0  0
   -2.9809   -0.7294   -1.3800 H   0  0  0  0  0  0  0  0  0  0  0  0
   -1.6976    1.4941   -1.0548 H   0  0  0  0  0  0  0  0  0  0  0  0
   -1.0122    0.7823    0.4154 H   0  0  0  0  0  0  0  0  0  0  0  0
    0.9132    1.3777   -0.8247 H   0  0  0  0  0  0  0  0  0  0  0  0
    1.6704   -0.5629   -2.9703 H   0  0  0  0  0  0  0  0  0  0  0  0
    2.4824    0.9496   -2.5725 H   0  0  0  0  0  0  0  0  0  0  0  0
    1.8268   -2.5389   -1.3479 H   0  0  0  0  0  0  0  0  0  0  0  0
    5.0386   -2.6734    1.2276 H   0  0  0  0  0  0  0  0  0  0  0  0
    7.1658    2.8581    1.0594 H   0  0  0  0  0  0  0  0  0  0  0  0
    6.9995    1.7973    2.4733 H   0  0  0  0  0  0  0  0  0  0  0  0
    8.0826    1.3386    1.1081 H   0  0  0  0  0  0  0  0  0  0  0  0
    4.1350    1.0452   -0.7507 H   0  0  0  0  0  0  0  0  0  0  0  0
   -5.0218    0.2831   -1.7402 H   0  0  0  0  0  0  0  0  0  0  0  0
   -6.8942    1.7118   -1.0171 H   0  0  0  0  0  0  0  0  0  0  0  0
   -6.8387    2.8217    1.2002 H   0  0  0  0  0  0  0  0  0  0  0  0
   -4.8907    2.4945    2.6993 H   0  0  0  0  0  0  0  0  0  0  0  0
   -3.0073    1.0730    1.9991 H   0  0  0  0  0  0  0  0  0  0  0  0
  1  2  1  0
  2  3  1  0
  3  4  1  0
  4  5  1  0
  5  6  2  0
  5  7  1  0
  7  8  1  0
  8  9  1  0
  9 10  2  0
 10 11  1  0
 11 12  2  0
 12 13  1  0
 13 14  1  0
 14 15  2  0
 14 16  1  0
 16 17  1  0
 13 18  2  0
  3 19  1  0
 19 20  2  0
 20 21  1  0
 21 22  2  0
 22 23  1  0
 23 24  2  0
 18  9  1  0
 24 19  1  0
  1 25  1  0
  1 26  1  0
  1 27  1  0
  2 28  1  0
  2 29  1  0
  3 30  1  0
  4 31  1  0
  4 32  1  0
  7 33  1  0
  8 34  1  0
  8 35  1  0
 10 36  1  0
 12 37  1  0
 17 38  1  0
 17 39  1  0
 17 40  1  0
 18 41  1  0
 20 42  1  0
 21 43  1  0
 22 44  1  0
 23 45  1  0
 24 46  1  0
M  END
$$$$
OCNT-2315145
     RDKit          3D

 53 56  0  0  0  0  0  0  0  0999 V2000
   -4.0046    0.5265    1.6846 C   0  0  0  0  0  0  0  0  0  0  0  0
   -5.0224    0.7213    0.6039 C   0  0  0  0  0  0  0  0  0  0  0  0
   -6.0886    1.5205    0.8307 C   0  0  0  0  0  0  0  0  0  0  0  0
   -7.0862    1.7260   -0.1986 C   0  0  0  0  0  0  0  0  0  0  0  0
   -6.9772    1.1357   -1.3989 C   0  0  0  0  0  0  0  0  0  0  0  0
   -5.8672    0.2929   -1.6763 C   0  0  0  0  0  0  0  0  0  0  0  0
   -5.5780   -0.3616   -2.7779 N   0  0  0  0  0  0  0  0  0  0  0  0
   -4.4052   -0.9985   -2.5143 C   0  0  0  0  0  0  0  0  0  0  0  0
   -3.9624   -0.7573   -1.2266 C   0  0  0  0  0  0  0  0  0  0  0  0
   -2.7411   -1.3052   -0.5856 C   0  0  0  0  0  0  0  0  0  0  0  0
   -1.6110   -0.4206   -0.8512 N   0  0  0  0  0  0  0  0  0  0  0  0
   -0.3973   -0.7954   -0.1072 C   0  0  0  0  0  0  0  0  0  0  0  0
    0.2444   -2.0702   -0.6749 C   0  0  0  0  0  0  0  0  0  0  0  0
    1.5399   -2.3914    0.0647 C   0  0  0  0  0  0  0  0  0  0  0  0
    2.5186   -1.2226    0.0321 C   0  0  0  0  0  0  0  0  0  0  0  0
    1.9018    0.0223    0.4893 N   0  0  0  0  0  0  0  0  0  0  0  0
    2.6352    1.0837    1.0247 C   0  0  0  0  0  0  0  0  0  0  0  0
    2.1611    2.2201    1.1209 O   0  0  0  0  0  0  0  0  0  0  0  0
    4.0484    0.8191    1.5295 C   0  0  0  0  0  0  0  0  0  0  0  0
    5.1000    0.7858    0.4442 C   0  0  0  0  0  0  0  0  0  0  0  0
    6.0837   -0.2141    0.4469 C   0  0  0  0  0  0  0  0  0  0  0  0
    7.0694   -0.2431   -0.5413 C   0  0  0  0  0  0  0  0  0  0  0  0
    7.0909    0.7332   -1.5347 C   0  0  0  0  0  0  0  0  0  0  0  0
    6.1319    1.7435   -1.5367 C   0  0  0  0  0  0  0  0  0  0  0  0
    5.1457    1.7746   -0.5493 C   0  0  0  0  0  0  0  0  0  0  0  0
    0.6278    0.3614   -0.1506 C   0  0  0  0  0  0  0  0  0  0  0  0
   -4.9088    0.0978   -0.6665 N   0  0  0  0  0  0  0  0  0  0  0  0
   -3.0049    0.8086    1.3456 H   0  0  0  0  0  0  0  0  0  0  0  0
   -4.2194    1.1492    2.5612 H   0  0  0  0  0  0  0  0  0  0  0  0
   -4.0024   -0.5100    2.0340 H   0  0  0  0  0  0  0  0  0  0  0  0
   -6.2381    2.0311    1.7778 H   0  0  0  0  0  0  0  0  0  0  0  0
   -7.9280    2.3739    0.0256 H   0  0  0  0  0  0  0  0  0  0  0  0
   -7.7175    1.2847   -2.1764 H   0  0  0  0  0  0  0  0  0  0  0  0
   -3.9223   -1.6128   -3.2642 H   0  0  0  0  0  0  0  0  0  0  0  0
   -2.8887   -1.4765    0.4818 H   0  0  0  0  0  0  0  0  0  0  0  0
   -2.5445   -2.2915   -1.0230 H   0  0  0  0  0  0  0  0  0  0  0  0
   -1.8758    0.5349   -0.6121 H   0  0  0  0  0  0  0  0  0  0  0  0
   -0.6521   -0.9628    0.9484 H   0  0  0  0  0  0  0  0  0  0  0  0
    0.4559   -1.9453   -1.7447 H   0  0  0  0  0  0  0  0  0  0  0  0
   -0.4318   -2.9266   -0.5780 H   0  0  0  0  0  0  0  0  0  0  0  0
    1.3042   -2.6371    1.1080 H   0  0  0  0  0  0  0  0  0  0  0  0
    2.0091   -3.2781   -0.3759 H   0  0  0  0  0  0  0  0  0  0  0  0
    2.8817   -1.0526   -0.9885 H   0  0  0  0  0  0  0  0  0  0  0  0
    3.3805   -1.4831    0.6483 H   0  0  0  0  0  0  0  0  0  0  0  0
    4.0482   -0.1000    2.1260 H   0  0  0  0  0  0  0  0  0  0  0  0
    4.3098    1.6212    2.2321 H   0  0  0  0  0  0  0  0  0  0  0  0
    6.0910   -0.9793    1.2200 H   0  0  0  0  0  0  0  0  0  0  0  0
    7.8249   -1.0246   -0.5328 H   0  0  0  0  0  0  0  0  0  0  0  0
    7.8599    0.7126   -2.3025 H   0  0  0  0  0  0  0  0  0  0  0  0
    6.1535    2.5130   -2.3042 H   0  0  0  0  0  0  0  0  0  0  0  0
    4.4139    2.5813   -0.5614 H   0  0  0  0  0  0  0  0  0  0  0  0
    0.1890    1.2430    0.3317 H   0  0  0  0  0  0  0  0  0  0  0  0
    0.8551    0.6424   -1.1877 H   0  0  0  0  0  0  0  0  0  0  0  0
  1  2  1  0
  2  3  2  0
  3  4  1  0
  4  5  2  0
  5  6  1  0
  6  7  2  0
  7  8  1  0
  8  9  2  0
  9 10  1  0
 10 11  1  0
 11 12  1  0
 12 13  1  0
 13 14  1  0
 14 15  1  0
 15 16  1  0
 16 17  1  0
 17 18  2  0
 17 19  1  0
 19 20  1  0
 20 21  2  0
 21 22  1  0
 22 23  2  0
 23 24  1  0
 24 25  2  0
 16 26  1  0
  9 27  1  0
 27  2  1  0
 27  6  1  0
 26 12  1  0
 25 20  1  0
  1 28  1  0
  1 29  1  0
  1 30  1  0
  3 31  1  0
  4 32  1  0
  5 33  1  0
  8 34  1  0
 10 35  1  0
 10 36  1  0
 11 37  1  0
 12 38  1  0
 13 39  1  0
 13 40  1  0
 14 41  1  0
 14 42  1  0
 15 43  1  0
 15 44  1  0
 19 45  1  0
 19 46  1  0
 21 47  1  0
 22 48  1  0
 23 49  1  0
 24 50  1  0
 25 51  1  0
 26 52  1  0
 26 53  1  0
M  END
$$$$
OCNT-2315146
     RDKit          3D

 58 62  0  0  0  0  0  0  0  0999 V2000
   -8.8777   -2.5934   -1.7294 C   0  0  0  0  0  0  0  0  0  0  0  0
   -8.3867   -2.5378   -0.3958 O   0  0  0  0  0  0  0  0  0  0  0  0
   -7.3828   -1.6456   -0.1398 C   0  0  0  0  0  0  0  0  0  0  0  0
   -6.8024   -0.7817   -1.0598 C   0  0  0  0  0  0  0  0  0  0  0  0
   -5.7823    0.0770   -0.6469 C   0  0  0  0  0  0  0  0  0  0  0  0
   -5.3310    0.0847    0.6964 C   0  0  0  0  0  0  0  0  0  0  0  0
   -5.9105   -0.7976    1.6169 C   0  0  0  0  0  0  0  0  0  0  0  0
   -6.9266   -1.6403    1.1827 C   0  0  0  0  0  0  0  0  0  0  0  0
   -5.5223   -0.8626    2.8941 N   0  0  0  0  0  0  0  0  0  0  0  0
   -4.5328   -0.0427    3.2617 C   0  0  0  0  0  0  0  0  0  0  0  0
   -3.9062    0.8438    2.4814 N   0  0  0  0  0  0  0  0  0  0  0  0
   -4.3124    0.9171    1.2036 C   0  0  0  0  0  0  0  0  0  0  0  0
   -3.6926    1.8484    0.3380 N   0  0  0  0  0  0  0  0  0  0  0  0
   -2.6093    2.6504    0.9069 C   0  0  0  0  0  0  0  0  0  0  0  0
   -1.2940    1.8719    0.9854 C   0  0  0  0  0  0  0  0  0  0  0  0
   -0.8044    1.4157   -0.3915 C   0  0  0  0  0  0  0  0  0  0  0  0
    0.5193    0.6912   -0.2977 C   0  0  0  0  0  0  0  0  0  0  0  0
    0.5435   -0.6938    0.0063 C   0  0  0  0  0  0  0  0  0  0  0  0
    1.7503   -1.3938    0.1115 C   0  0  0  0  0  0  0  0  0  0  0  0
    2.9128   -0.6769   -0.0844 C   0  0  0  0  0  0  0  0  0  0  0  0
    4.3093   -1.1064   -0.0511 C   0  0  0  0  0  0  0  0  0  0  0  0
    4.6675   -2.2547    0.1267 O   0  0  0  0  0  0  0  0  0  0  0  0
    5.0692    0.0096   -0.2756 N   0  0  0  0  0  0  0  0  0  0  0  0
    6.5114    0.0139   -0.4639 C   0  0  0  0  0  0  0  0  0  0  0  0
    7.2888   -0.7164    0.6279 C   0  0  0  0  0  0  0  0  0  0  0  0
    8.7786   -0.6077    0.3389 C   0  0  0  0  0  0  0  0  0  0  0  0
    9.1122   -1.1450   -1.0339 C   0  0  0  0  0  0  0  0  0  0  0  0
   10.2129   -1.6165   -1.3034 O   0  0  0  0  0  0  0  0  0  0  0  0
    8.1381   -1.0267   -1.9941 N   0  0  0  0  0  0  0  0  0  0  0  0
    6.8452   -0.5785   -1.8371 C   0  0  0  0  0  0  0  0  0  0  0  0
    6.0571   -0.6109   -2.7803 O   0  0  0  0  0  0  0  0  0  0  0  0
    4.2868    1.1064   -0.5209 C   0  0  0  0  0  0  0  0  0  0  0  0
    4.6282    2.2399   -0.8002 O   0  0  0  0  0  0  0  0  0  0  0  0
    2.8991    0.6740   -0.3751 C   0  0  0  0  0  0  0  0  0  0  0  0
    1.7227    1.3893   -0.4881 C   0  0  0  0  0  0  0  0  0  0  0  0
   -8.0910   -2.8986   -2.4272 H   0  0  0  0  0  0  0  0  0  0  0  0
   -9.6662   -3.3513   -1.7641 H   0  0  0  0  0  0  0  0  0  0  0  0
   -9.3211   -1.6372   -2.0265 H   0  0  0  0  0  0  0  0  0  0  0  0
   -7.1116   -0.7523   -2.0992 H   0  0  0  0  0  0  0  0  0  0  0  0
   -5.3236    0.7350   -1.3818 H   0  0  0  0  0  0  0  0  0  0  0  0
   -7.3790   -2.3232    1.8992 H   0  0  0  0  0  0  0  0  0  0  0  0
   -4.2081   -0.1008    4.2949 H   0  0  0  0  0  0  0  0  0  0  0  0
   -4.4267    2.4426   -0.0415 H   0  0  0  0  0  0  0  0  0  0  0  0
   -2.8808    3.0596    1.8878 H   0  0  0  0  0  0  0  0  0  0  0  0
   -2.4599    3.5186    0.2531 H   0  0  0  0  0  0  0  0  0  0  0  0
   -1.3976    1.0045    1.6476 H   0  0  0  0  0  0  0  0  0  0  0  0
   -0.5368    2.5199    1.4453 H   0  0  0  0  0  0  0  0  0  0  0  0
   -1.5368    0.7511   -0.8660 H   0  0  0  0  0  0  0  0  0  0  0  0
   -0.7011    2.2793   -1.0606 H   0  0  0  0  0  0  0  0  0  0  0  0
   -0.3942   -1.2280    0.1604 H   0  0  0  0  0  0  0  0  0  0  0  0
    1.7736   -2.4550    0.3366 H   0  0  0  0  0  0  0  0  0  0  0  0
    6.8423    1.0605   -0.4984 H   0  0  0  0  0  0  0  0  0  0  0  0
    7.0167   -1.7771    0.6691 H   0  0  0  0  0  0  0  0  0  0  0  0
    7.0641   -0.2851    1.6101 H   0  0  0  0  0  0  0  0  0  0  0  0
    9.3365   -1.1863    1.0831 H   0  0  0  0  0  0  0  0  0  0  0  0
    9.1147    0.4337    0.3905 H   0  0  0  0  0  0  0  0  0  0  0  0
    8.3659   -1.4055   -2.9035 H   0  0  0  0  0  0  0  0  0  0  0  0
    1.7418    2.4501   -0.7184 H   0  0  0  0  0  0  0  0  0  0  0  0
  1  2  1  0
  2  3  1  0
  3  4  1  0
  4  5  2  0
  5  6  1  0
  6  7  1  0
  7  8  1  0
  7  9  2  0
  9 10  1  0
 10 11  2  0
 11 12  1  0
 12 13  1  0
 13 14  1  0
 14 15  1  0
 15 16  1  0
 16 17  1  0
 17 18  1  0
 18 19  2  0
 19 20  1  0
 20 21  1  0
 21 22  2  0
 21 23  1  0
 23 24  1  0
 24 25  1  0
 25 26  1  0
 26 27  1  0
 27 28  2  0
 27 29  1  0
 29 30  1  0
 30 31  2  0
 23 32  1  0
 32 33  2  0
 32 34  1  0
 34 35  1  0
  8  3  2  0
 35 17  2  0
 12  6  2  0
 34 20  2  0
 30 24  1  0
  1 36  1  0
  1 37  1  0
  1 38  1  0
  4 39  1  0
  5 40  1  0
  8 41  1  0
 10 42  1  0
 13 43  1  0
 14 44  1  0
 14 45  1  0
 15 46  1  0
 15 47  1  0
 16 48  1  0
 16 49  1  0
 18 50  1  0
 19 51  1  0
 24 52  1  0
 25 53  1  0
 25 54  1  0
 26 55  1  0
 26 56  1  0
 29 57  1  0
 35 58  1  0
M  END
$$$$
OCNT-2315149
     RDKit          3D

  0  0  0  0  0  0  0  0  0  0999 V3000
M  V30 BEGIN CTAB
M  V30 COUNTS 48 53 0 0 0
M  V30 BEGIN ATOM
M  V30 1 O 2.600190 -0.273411 2.193750 0
M  V30 2 C 2.161268 -0.354766 1.042186 0
M  V30 3 C 3.073905 -0.763645 -0.048750 0
M  V30 4 N 2.692767 -1.403329 -1.188280 0
M  V30 5 N 3.843159 -1.632947 -1.870333 0
M  V30 6 C 4.912302 -1.179323 -1.201574 0
M  V30 7 C 4.476132 -0.633976 -0.031180 0
M  V30 8 C 5.564474 -0.117588 0.835393 0
M  V30 9 C 6.834837 -0.384169 -0.004573 0 CFG=1
M  V30 10 C 7.318819 -1.779942 -0.307630 0
M  V30 11 C 6.441919 -1.095840 -1.318387 0 CFG=1
M  V30 12 N 0.810605 -0.060082 0.775924 0
M  V30 13 C -0.077554 -0.151873 1.929267 0
M  V30 14 C -1.459086 0.359561 1.664244 0
M  V30 15 C -1.879880 0.827837 0.479043 0
M  V30 16 C -3.251496 1.336110 0.307806 0
M  V30 17 C -3.457284 2.707872 0.523670 0
M  V30 18 C -4.724378 3.263553 0.380323 0
M  V30 19 C -5.799358 2.453255 0.021693 0
M  V30 20 C -5.625924 1.077315 -0.196732 0
M  V30 21 C -6.721557 0.274598 -0.556284 0
M  V30 22 C -6.568429 -1.093845 -0.776090 0
M  V30 23 C -5.316243 -1.679049 -0.639291 0
M  V30 24 C -4.216913 -0.894874 -0.283315 0
M  V30 25 C -4.340350 0.496103 -0.053757 0
M  V30 26 C -0.973174 0.860253 -0.711658 0
M  V30 27 C 0.206459 -0.104022 -0.557735 0
M  V30 28 H 3.795282 -2.106907 -2.766054 0
M  V30 29 H 5.450132 0.955929 1.015380 0
M  V30 30 H 5.617722 -0.651410 1.788478 0
M  V30 31 H 7.526965 0.443935 -0.041839 0
M  V30 32 H 8.366610 -1.906969 -0.555510 0
M  V30 33 H 6.907585 -2.605291 0.262538 0
M  V30 34 H 6.869095 -0.722094 -2.239858 0
M  V30 35 H 0.355516 0.406398 2.766959 0
M  V30 36 H -0.132296 -1.206820 2.222993 0
M  V30 37 H -2.137136 0.345390 2.513832 0
M  V30 38 H -2.624488 3.348631 0.806329 0
M  V30 39 H -4.875623 4.327018 0.548756 0
M  V30 40 H -6.782207 2.907554 -0.085632 0
M  V30 41 H -7.711098 0.713725 -0.668077 0
M  V30 42 H -7.426978 -1.700161 -1.052589 0
M  V30 43 H -5.190216 -2.745363 -0.807562 0
M  V30 44 H -3.250849 -1.384727 -0.182621 0
M  V30 45 H -1.514643 0.607085 -1.631077 0
M  V30 46 H -0.593364 1.883319 -0.830425 0
M  V30 47 H 0.938191 0.174337 -1.319318 0
M  V30 48 H -0.113414 -1.137353 -0.740007 0
M  V30 END ATOM
M  V30 BEGIN BOND
M  V30 1 2 1 2
M  V30 2 1 2 3
M  V30 3 2 3 4
M  V30 4 1 4 5
M  V30 5 1 5 6
M  V30 6 2 6 7
M  V30 7 1 7 8
M  V30 8 1 8 9
M  V30 9 1 9 10
M  V30 10 1 10 11
M  V30 11 1 2 12
M  V30 12 1 12 13
M  V30 13 1 13 14
M  V30 14 2 14 15
M  V30 15 1 15 16
M  V30 16 2 16 17
M  V30 17 1 17 18
M  V30 18 2 18 19
M  V30 19 1 19 20
M  V30 20 2 20 21
M  V30 21 1 21 22
M  V30 22 2 22 23
M  V30 23 1 23 24
M  V30 24 2 24 25
M  V30 25 1 15 26
M  V30 26 1 26 27
M  V30 27 1 7 3
M  V30 28 1 11 9
M  V30 29 1 27 12
M  V30 30 1 11 6
M  V30 31 1 25 16
M  V30 32 1 25 20
M  V30 33 1 5 28
M  V30 34 1 8 29
M  V30 35 1 8 30
M  V30 36 1 9 31 CFG=3
M  V30 37 1 10 32
M  V30 38 1 10 33
M  V30 39 1 11 34 CFG=3
M  V30 40 1 13 35
M  V30 41 1 13 36
M  V30 42 1 14 37
M  V30 43 1 17 38
M  V30 44 1 18 39
M  V30 45 1 19 40
M  V30 46 1 21 41
M  V30 47 1 22 42
M  V30 48 1 23 43
M  V30 49 1 24 44
M  V30 50 1 26 45
M  V30 51 1 26 46
M  V30 52 1 27 47
M  V30 53 1 27 48
M  V30 END BOND
M  V30 BEGIN COLLECTION
M  V30 MDLV30/STERAC1 ATOMS=(2 9 11)
M  V30 END COLLECTION
M  V30 END CTAB
M  END
>  <_CXSMILES_Data>  (942) 
|&1:8,10|

$$$$
OCNT-2315150
     RDKit          3D

 36 39  0  0  0  0  0  0  0  0999 V2000
    0.1335    0.0501   -2.3941 O   0  0  0  0  0  0  0  0  0  0  0  0
   -0.1394    0.7512   -1.4150 C   0  0  0  0  0  0  0  0  0  0  0  0
    0.7906    1.8966   -1.0501 C   0  0  0  0  0  0  0  0  0  0  0  0
    1.6974    1.5472    0.0776 C   0  0  0  0  0  0  0  0  0  0  0  0
    1.6735    2.2725    1.2074 N   0  0  0  0  0  0  0  0  0  0  0  0
    2.6222    1.7034    1.9726 N   0  0  0  0  0  0  0  0  0  0  0  0
    3.2501    0.6362    1.3918 C   0  0  0  0  0  0  0  0  0  0  0  0
    4.2658   -0.2073    1.8530 C   0  0  0  0  0  0  0  0  0  0  0  0
    4.6932   -1.2200    0.9882 C   0  0  0  0  0  0  0  0  0  0  0  0
    4.1273   -1.3742   -0.2774 C   0  0  0  0  0  0  0  0  0  0  0  0
    3.1123   -0.5165   -0.7191 C   0  0  0  0  0  0  0  0  0  0  0  0
    2.6666    0.5071    0.1372 C   0  0  0  0  0  0  0  0  0  0  0  0
   -1.2673    0.5803   -0.6272 N   0  0  0  0  0  0  0  0  0  0  0  0
   -1.5937    1.3336    0.5998 C   0  0  0  0  0  0  0  0  0  0  0  0
   -2.9851    0.8840    1.0611 C   0  0  0  0  0  0  0  0  0  0  0  0
   -3.2354   -0.2956    0.1792 C   0  0  0  0  0  0  0  0  0  0  0  0
   -4.3138   -1.1681    0.2314 C   0  0  0  0  0  0  0  0  0  0  0  0
   -4.3804   -2.1879   -0.7175 C   0  0  0  0  0  0  0  0  0  0  0  0
   -5.7003   -3.2925   -0.6860 Cl  0  0  0  0  0  0  0  0  0  0  0  0
   -3.3897   -2.3217   -1.6992 C   0  0  0  0  0  0  0  0  0  0  0  0
   -2.3103   -1.4311   -1.7430 C   0  0  0  0  0  0  0  0  0  0  0  0
   -2.2426   -0.4223   -0.7954 C   0  0  0  0  0  0  0  0  0  0  0  0
    0.2080    2.8003   -0.8441 H   0  0  0  0  0  0  0  0  0  0  0  0
    1.3948    2.1336   -1.9352 H   0  0  0  0  0  0  0  0  0  0  0  0
    2.7977    2.0938    2.8910 H   0  0  0  0  0  0  0  0  0  0  0  0
    4.7085   -0.0881    2.8362 H   0  0  0  0  0  0  0  0  0  0  0  0
    5.4807   -1.8994    1.3078 H   0  0  0  0  0  0  0  0  0  0  0  0
    4.4753   -2.1705   -0.9316 H   0  0  0  0  0  0  0  0  0  0  0  0
    2.6768   -0.6495   -1.7063 H   0  0  0  0  0  0  0  0  0  0  0  0
   -1.5626    2.4109    0.4114 H   0  0  0  0  0  0  0  0  0  0  0  0
   -0.8444    1.0885    1.3598 H   0  0  0  0  0  0  0  0  0  0  0  0
   -3.7298    1.6641    0.8728 H   0  0  0  0  0  0  0  0  0  0  0  0
   -2.9886    0.6187    2.1223 H   0  0  0  0  0  0  0  0  0  0  0  0
   -5.0854   -1.0568    0.9861 H   0  0  0  0  0  0  0  0  0  0  0  0
   -3.4524   -3.1189   -2.4356 H   0  0  0  0  0  0  0  0  0  0  0  0
   -1.5531   -1.5515   -2.5100 H   0  0  0  0  0  0  0  0  0  0  0  0
  1  2  2  0
  2  3  1  0
  3  4  1  0
  4  5  2  0
  5  6  1  0
  6  7  1  0
  7  8  2  0
  8  9  1  0
  9 10  2  0
 10 11  1  0
 11 12  2  0
  2 13  1  0
 13 14  1  0
 14 15  1  0
 15 16  1  0
 16 17  1  0
 17 18  2  0
 18 19  1  0
 18 20  1  0
 20 21  2  0
 21 22  1  0
 12  4  1  0
 22 13  1  0
 12  7  1  0
 22 16  2  0
  3 23  1  0
  3 24  1  0
  6 25  1  0
  8 26  1  0
  9 27  1  0
 10 28  1  0
 11 29  1  0
 14 30  1  0
 14 31  1  0
 15 32  1  0
 15 33  1  0
 17 34  1  0
 20 35  1  0
 21 36  1  0
M  END
$$$$
OCNT-2315157
     RDKit          3D

 47 49  0  0  0  0  0  0  0  0999 V2000
    7.2220   -0.3999   -1.5405 C   0  0  0  0  0  0  0  0  0  0  0  0
    6.0546   -0.3945   -0.5975 C   0  0  0  0  0  0  0  0  0  0  0  0
    5.9707   -1.3496    0.4314 C   0  0  0  0  0  0  0  0  0  0  0  0
    4.9043   -1.3396    1.3347 C   0  0  0  0  0  0  0  0  0  0  0  0
    3.9307   -0.3546    1.2181 C   0  0  0  0  0  0  0  0  0  0  0  0
    2.7058   -0.2502    2.0804 C   0  0  0  0  0  0  0  0  0  0  0  0
    2.1291    1.1592    1.8899 C   0  0  0  0  0  0  0  0  0  0  0  0
    0.6116    1.1587    2.0085 C   0  0  0  0  0  0  0  0  0  0  0  0
    0.0453    1.5237    3.0364 O   0  0  0  0  0  0  0  0  0  0  0  0
   -0.0721    0.6430    0.9214 N   0  0  0  0  0  0  0  0  0  0  0  0
   -1.5266    0.7006    0.8751 C   0  0  0  0  0  0  0  0  0  0  0  0
   -2.1569   -0.1902   -0.2224 C   0  0  0  0  0  0  0  0  0  0  0  0
   -3.5933   -0.4732    0.0859 N   0  0  0  0  0  0  0  0  0  0  0  0
   -4.1760   -1.5494   -0.7427 C   0  0  0  0  0  0  0  0  0  0  0  0
   -5.2979   -1.0930   -1.7024 C   0  0  0  0  0  0  0  0  0  0  0  0
   -6.4103   -0.3998   -1.0359 N   0  0  0  0  0  0  0  0  0  0  0  0
   -5.9615    0.3465    0.1492 C   0  0  0  0  0  0  0  0  0  0  0  0
   -4.4614    0.7169    0.1356 C   0  0  0  0  0  0  0  0  0  0  0  0
   -1.8065    0.4052   -1.6081 C   0  0  0  0  0  0  0  0  0  0  0  0
   -0.4626    0.4406   -1.7895 F   0  0  0  0  0  0  0  0  0  0  0  0
   -2.2621    1.6685   -1.7563 F   0  0  0  0  0  0  0  0  0  0  0  0
   -2.3181   -0.3350   -2.6184 F   0  0  0  0  0  0  0  0  0  0  0  0
    2.6747    1.7485    0.2418 S   0  0  0  0  0  0  0  0  0  0  0  0
    4.0167    0.6001    0.2043 C   0  0  0  0  0  0  0  0  0  0  0  0
    5.0676    0.5953   -0.7013 C   0  0  0  0  0  0  0  0  0  0  0  0
    8.0353    0.2075   -1.1319 H   0  0  0  0  0  0  0  0  0  0  0  0
    6.9363    0.0021   -2.5183 H   0  0  0  0  0  0  0  0  0  0  0  0
    7.5876   -1.4192   -1.7031 H   0  0  0  0  0  0  0  0  0  0  0  0
    6.7397   -2.1138    0.5289 H   0  0  0  0  0  0  0  0  0  0  0  0
    4.8442   -2.0944    2.1138 H   0  0  0  0  0  0  0  0  0  0  0  0
    2.9598   -0.4071    3.1351 H   0  0  0  0  0  0  0  0  0  0  0  0
    1.9933   -1.0319    1.7902 H   0  0  0  0  0  0  0  0  0  0  0  0
    2.5431    1.8505    2.6329 H   0  0  0  0  0  0  0  0  0  0  0  0
    0.4433    0.6916    0.0423 H   0  0  0  0  0  0  0  0  0  0  0  0
   -1.8897    0.3825    1.8608 H   0  0  0  0  0  0  0  0  0  0  0  0
   -1.8105    1.7524    0.7507 H   0  0  0  0  0  0  0  0  0  0  0  0
   -1.6406   -1.1586   -0.1616 H   0  0  0  0  0  0  0  0  0  0  0  0
   -3.4092   -2.0886   -1.3114 H   0  0  0  0  0  0  0  0  0  0  0  0
   -4.5995   -2.2902   -0.0519 H   0  0  0  0  0  0  0  0  0  0  0  0
   -5.6992   -1.9626   -2.2338 H   0  0  0  0  0  0  0  0  0  0  0  0
   -4.8700   -0.4273   -2.4621 H   0  0  0  0  0  0  0  0  0  0  0  0
   -6.8492    0.2347   -1.7020 H   0  0  0  0  0  0  0  0  0  0  0  0
   -6.5622    1.2584    0.2433 H   0  0  0  0  0  0  0  0  0  0  0  0
   -6.1760   -0.2586    1.0387 H   0  0  0  0  0  0  0  0  0  0  0  0
   -4.2403    1.2918    1.0417 H   0  0  0  0  0  0  0  0  0  0  0  0
   -4.2861    1.3762   -0.7215 H   0  0  0  0  0  0  0  0  0  0  0  0
    5.1220    1.3524   -1.4786 H   0  0  0  0  0  0  0  0  0  0  0  0
  1  2  1  0
  2  3  1  0
  3  4  2  0
  4  5  1  0
  5  6  1  0
  6  7  1  0
  7  8  1  0
  8  9  2  0
  8 10  1  0
 10 11  1  0
 11 12  1  0
 12 13  1  0
 13 14  1  0
 14 15  1  0
 15 16  1  0
 16 17  1  0
 17 18  1  0
 12 19  1  0
 19 20  1  0
 19 21  1  0
 19 22  1  0
  7 23  1  0
 23 24  1  0
 24 25  1  0
 25  2  2  0
 24  5  2  0
 18 13  1  0
  1 26  1  0
  1 27  1  0
  1 28  1  0
  3 29  1  0
  4 30  1  0
  6 31  1  0
  6 32  1  0
  7 33  1  0
 10 34  1  0
 11 35  1  0
 11 36  1  0
 12 37  1  0
 14 38  1  0
 14 39  1  0
 15 40  1  0
 15 41  1  0
 16 42  1  0
 17 43  1  0
 17 44  1  0
 18 45  1  0
 18 46  1  0
 25 47  1  0
M  END
$$$$
OCNT-2315159
     RDKit          3D

 50 52  0  0  0  0  0  0  0  0999 V2000
    2.9232    1.6564    0.9915 O   0  0  0  0  0  0  0  0  0  0  0  0
    3.2249    0.5089    1.2990 C   0  0  0  0  0  0  0  0  0  0  0  0
    4.6216   -0.0462    1.1620 C   0  0  0  0  0  0  0  0  0  0  0  0
    5.6036    1.0519    0.7809 C   0  0  0  0  0  0  0  0  0  0  0  0
    6.9460    0.5327    0.5952 N   0  0  0  0  0  0  0  0  0  0  0  0
    7.6780    0.5462   -0.5576 C   0  0  0  0  0  0  0  0  0  0  0  0
    8.8754   -0.0571   -0.2547 C   0  0  0  0  0  0  0  0  0  0  0  0
    8.7654   -0.4047    1.1043 C   0  0  0  0  0  0  0  0  0  0  0  0
    7.5928   -0.0405    1.6286 N   0  0  0  0  0  0  0  0  0  0  0  0
    2.3256   -0.4158    1.7832 N   0  0  0  0  0  0  0  0  0  0  0  0
    0.9231   -0.1108    1.9928 C   0  0  0  0  0  0  0  0  0  0  0  0
    0.0470   -0.6459    0.8660 C   0  0  0  0  0  0  0  0  0  0  0  0
    0.2230    0.0685   -0.4760 C   0  0  0  0  0  0  0  0  0  0  0  0
   -1.1853    0.1730   -1.0606 C   0  0  0  0  0  0  0  0  0  0  0  0
   -2.0218   -0.6427   -0.1731 N   0  0  0  0  0  0  0  0  0  0  0  0
   -3.4430   -0.2714   -0.1967 C   0  0  0  0  0  0  0  0  0  0  0  0
   -4.1046   -0.5236   -1.5620 C   0  0  0  0  0  0  0  0  0  0  0  0
   -5.5898   -0.2501   -1.5173 C   0  0  0  0  0  0  0  0  0  0  0  0
   -6.4967   -1.2925   -1.2856 C   0  0  0  0  0  0  0  0  0  0  0  0
   -7.8665   -1.0353   -1.2149 C   0  0  0  0  0  0  0  0  0  0  0  0
   -8.3412    0.2653   -1.3709 C   0  0  0  0  0  0  0  0  0  0  0  0
   -7.4477    1.3100   -1.6004 C   0  0  0  0  0  0  0  0  0  0  0  0
   -6.0775    1.0544   -1.6722 C   0  0  0  0  0  0  0  0  0  0  0  0
   -1.4379   -0.4770    1.1604 C   0  0  0  0  0  0  0  0  0  0  0  0
    4.9104   -0.5084    2.1127 H   0  0  0  0  0  0  0  0  0  0  0  0
    4.6084   -0.8297    0.3959 H   0  0  0  0  0  0  0  0  0  0  0  0
    5.3035    1.5404   -0.1543 H   0  0  0  0  0  0  0  0  0  0  0  0
    5.6628    1.8265    1.5563 H   0  0  0  0  0  0  0  0  0  0  0  0
    7.2998    0.9863   -1.4684 H   0  0  0  0  0  0  0  0  0  0  0  0
    9.7109   -0.2228   -0.9206 H   0  0  0  0  0  0  0  0  0  0  0  0
    9.4902   -0.9052    1.7318 H   0  0  0  0  0  0  0  0  0  0  0  0
    2.6526   -1.3467    2.0145 H   0  0  0  0  0  0  0  0  0  0  0  0
    0.7932    0.9704    2.1130 H   0  0  0  0  0  0  0  0  0  0  0  0
    0.6425   -0.5853    2.9393 H   0  0  0  0  0  0  0  0  0  0  0  0
    0.2624   -1.7140    0.7189 H   0  0  0  0  0  0  0  0  0  0  0  0
    0.6504    1.0700   -0.3603 H   0  0  0  0  0  0  0  0  0  0  0  0
    0.8863   -0.5083   -1.1312 H   0  0  0  0  0  0  0  0  0  0  0  0
   -1.2128   -0.1970   -2.0912 H   0  0  0  0  0  0  0  0  0  0  0  0
   -1.4975    1.2257   -1.0620 H   0  0  0  0  0  0  0  0  0  0  0  0
   -3.9694   -0.8721    0.5572 H   0  0  0  0  0  0  0  0  0  0  0  0
   -3.5744    0.7802    0.0945 H   0  0  0  0  0  0  0  0  0  0  0  0
   -3.6540    0.1082   -2.3378 H   0  0  0  0  0  0  0  0  0  0  0  0
   -3.9346   -1.5610   -1.8779 H   0  0  0  0  0  0  0  0  0  0  0  0
   -6.1400   -2.3116   -1.1558 H   0  0  0  0  0  0  0  0  0  0  0  0
   -8.5629   -1.8496   -1.0358 H   0  0  0  0  0  0  0  0  0  0  0  0
   -9.4085    0.4658   -1.3128 H   0  0  0  0  0  0  0  0  0  0  0  0
   -7.8178    2.3254   -1.7219 H   0  0  0  0  0  0  0  0  0  0  0  0
   -5.3924    1.8807   -1.8485 H   0  0  0  0  0  0  0  0  0  0  0  0
   -1.6489    0.5171    1.5771 H   0  0  0  0  0  0  0  0  0  0  0  0
   -1.7980   -1.2388    1.8601 H   0  0  0  0  0  0  0  0  0  0  0  0
  1  2  2  0
  2  3  1  0
  3  4  1  0
  4  5  1  0
  5  6  1  0
  6  7  2  0
  7  8  1  0
  8  9  2  0
  2 10  1  0
 10 11  1  0
 11 12  1  0
 12 13  1  0
 13 14  1  0
 14 15  1  0
 15 16  1  0
 16 17  1  0
 17 18  1  0
 18 19  2  0
 19 20  1  0
 20 21  2  0
 21 22  1  0
 22 23  2  0
 15 24  1  0
  9  5  1  0
 24 12  1  0
 23 18  1  0
  3 25  1  0
  3 26  1  0
  4 27  1  0
  4 28  1  0
  6 29  1  0
  7 30  1  0
  8 31  1  0
 10 32  1  0
 11 33  1  0
 11 34  1  0
 12 35  1  0
 13 36  1  0
 13 37  1  0
 14 38  1  0
 14 39  1  0
 16 40  1  0
 16 41  1  0
 17 42  1  0
 17 43  1  0
 19 44  1  0
 20 45  1  0
 21 46  1  0
 22 47  1  0
 23 48  1  0
 24 49  1  0
 24 50  1  0
M  END
$$$$
OCNT-2315166
     RDKit          3D

 50 52  0  0  0  0  0  0  0  0999 V2000
   -2.4700    0.5556    3.1485 C   0  0  0  0  0  0  0  0  0  0  0  0
   -2.1680    0.2827    1.6706 C   0  0  0  0  0  0  0  0  0  0  0  0
   -0.9376    0.9624    1.2870 N   0  0  0  0  0  0  0  0  0  0  0  0
    0.0657    0.3298    0.5770 C   0  0  0  0  0  0  0  0  0  0  0  0
    0.0561   -0.8736    0.3549 O   0  0  0  0  0  0  0  0  0  0  0  0
    1.1607    1.2950    0.0881 C   0  0  0  0  0  0  0  0  0  0  0  0
    2.5070    0.7120   -0.0366 N   0  0  0  0  0  0  0  0  0  0  0  0
    2.9858    0.0692    1.1802 C   0  0  0  0  0  0  0  0  0  0  0  0
    4.5027   -0.1524    1.1001 C   0  0  0  0  0  0  0  0  0  0  0  0
    4.9918   -0.4981   -0.3182 C   0  0  0  0  0  0  0  0  0  0  0  0
    6.2184   -1.4134   -0.2689 C   0  0  0  0  0  0  0  0  0  0  0  0
    6.7451   -1.6217   -1.5751 O   0  0  0  0  0  0  0  0  0  0  0  0
    3.8492   -1.1014   -1.1406 C   0  0  0  0  0  0  0  0  0  0  0  0
    2.6520   -0.1410   -1.2229 C   0  0  0  0  0  0  0  0  0  0  0  0
   -3.2924    0.7077    0.7253 C   0  0  0  0  0  0  0  0  0  0  0  0
   -3.8949    1.9695    0.9190 C   0  0  0  0  0  0  0  0  0  0  0  0
   -4.9053    2.4156    0.0784 C   0  0  0  0  0  0  0  0  0  0  0  0
   -5.3272    1.6147   -0.9729 C   0  0  0  0  0  0  0  0  0  0  0  0
   -6.3021    2.0769   -1.7695 F   0  0  0  0  0  0  0  0  0  0  0  0
   -4.7531    0.3654   -1.2242 C   0  0  0  0  0  0  0  0  0  0  0  0
   -5.1979   -0.4050   -2.3153 C   0  0  0  0  0  0  0  0  0  0  0  0
   -4.6270   -1.6403   -2.6063 C   0  0  0  0  0  0  0  0  0  0  0  0
   -3.6036   -2.1194   -1.8062 C   0  0  0  0  0  0  0  0  0  0  0  0
   -3.1554   -1.3675   -0.7143 C   0  0  0  0  0  0  0  0  0  0  0  0
   -3.7126   -0.1074   -0.3809 C   0  0  0  0  0  0  0  0  0  0  0  0
   -3.4288    0.1175    3.4434 H   0  0  0  0  0  0  0  0  0  0  0  0
   -2.4929    1.6244    3.3808 H   0  0  0  0  0  0  0  0  0  0  0  0
   -1.6899    0.1153    3.7802 H   0  0  0  0  0  0  0  0  0  0  0  0
   -2.0135   -0.7973    1.6128 H   0  0  0  0  0  0  0  0  0  0  0  0
   -0.9520    1.9711    1.2871 H   0  0  0  0  0  0  0  0  0  0  0  0
    1.2206    2.1392    0.7803 H   0  0  0  0  0  0  0  0  0  0  0  0
    0.8369    1.7067   -0.8704 H   0  0  0  0  0  0  0  0  0  0  0  0
    2.7812    0.6924    2.0567 H   0  0  0  0  0  0  0  0  0  0  0  0
    2.4848   -0.8889    1.3497 H   0  0  0  0  0  0  0  0  0  0  0  0
    4.7751   -0.9430    1.8136 H   0  0  0  0  0  0  0  0  0  0  0  0
    5.0251    0.7547    1.4347 H   0  0  0  0  0  0  0  0  0  0  0  0
    5.2878    0.4345   -0.8171 H   0  0  0  0  0  0  0  0  0  0  0  0
    5.9657   -2.3947    0.1537 H   0  0  0  0  0  0  0  0  0  0  0  0
    7.0104   -0.9736    0.3508 H   0  0  0  0  0  0  0  0  0  0  0  0
    6.9413   -0.7513   -1.9483 H   0  0  0  0  0  0  0  0  0  0  0  0
    3.5290   -2.0424   -0.6791 H   0  0  0  0  0  0  0  0  0  0  0  0
    4.1821   -1.3437   -2.1542 H   0  0  0  0  0  0  0  0  0  0  0  0
    2.7879    0.5154   -2.0904 H   0  0  0  0  0  0  0  0  0  0  0  0
    1.7568   -0.7395   -1.4271 H   0  0  0  0  0  0  0  0  0  0  0  0
   -3.5763    2.6241    1.7276 H   0  0  0  0  0  0  0  0  0  0  0  0
   -5.3631    3.3845    0.2287 H   0  0  0  0  0  0  0  0  0  0  0  0
   -5.9959   -0.0341   -2.9563 H   0  0  0  0  0  0  0  0  0  0  0  0
   -4.9756   -2.2176   -3.4573 H   0  0  0  0  0  0  0  0  0  0  0  0
   -3.1452   -3.0747   -2.0235 H   0  0  0  0  0  0  0  0  0  0  0  0
   -2.3389   -1.7942   -0.1388 H   0  0  0  0  0  0  0  0  0  0  0  0
  1  2  1  0
  2  3  1  0
  3  4  1  0
  4  5  2  0
  4  6  1  0
  6  7  1  0
  7  8  1  0
  8  9  1  0
  9 10  1  0
 10 11  1  0
 11 12  1  0
 10 13  1  0
 13 14  1  0
  2 15  1  0
 15 16  2  0
 16 17  1  0
 17 18  2  0
 18 19  1  0
 18 20  1  0
 20 21  2  0
 21 22  1  0
 22 23  2  0
 23 24  1  0
 24 25  2  0
 14  7  1  0
 25 15  1  0
 25 20  1  0
  1 26  1  0
  1 27  1  0
  1 28  1  0
  2 29  1  0
  3 30  1  0
  6 31  1  0
  6 32  1  0
  8 33  1  0
  8 34  1  0
  9 35  1  0
  9 36  1  0
 10 37  1  0
 11 38  1  0
 11 39  1  0
 12 40  1  0
 13 41  1  0
 13 42  1  0
 14 43  1  0
 14 44  1  0
 16 45  1  0
 17 46  1  0
 21 47  1  0
 22 48  1  0
 23 49  1  0
 24 50  1  0
M  END
$$$$
OCNT-2315191
     RDKit          3D

  0  0  0  0  0  0  0  0  0  0999 V3000
M  V30 BEGIN CTAB
M  V30 COUNTS 48 51 0 0 0
M  V30 BEGIN ATOM
M  V30 1 O 0.268751 0.870160 1.116582 0
M  V30 2 C 0.571960 0.544880 -0.027349 0
M  V30 3 N -0.298905 0.673908 -1.090164 0
M  V30 4 C -1.570574 1.346651 -0.928090 0 CFG=2
M  V30 5 C -2.564023 0.593306 -0.025276 0
M  V30 6 C -3.934114 0.671665 -0.728453 0
M  V30 7 C -5.100449 0.985137 0.208609 0
M  V30 8 N -5.442975 -0.125502 1.073904 0
M  V30 9 C -6.266387 -1.168853 0.754720 0
M  V30 10 C -6.310818 -1.943383 1.890334 0
M  V30 11 N -5.545570 -1.391947 2.884751 0
M  V30 12 C -5.036228 -0.297505 2.365221 0
M  V30 13 C -3.752617 1.736005 -1.810891 0
M  V30 14 C -2.317722 1.510137 -2.258955 0 CFG=1
M  V30 15 O -1.824216 2.589678 -3.033417 0
M  V30 16 C 1.895219 0.021854 -0.363133 0
M  V30 17 C 2.344821 -0.473640 -1.575119 0
M  V30 18 N 3.654260 -0.857898 -1.430734 0
M  V30 19 C 4.081402 -0.637131 -0.141038 0
M  V30 20 C 5.439244 -0.938091 0.317244 0
M  V30 21 C 6.056953 -0.123888 1.276363 0
M  V30 22 C 7.353985 -0.397809 1.718592 0
M  V30 23 C 8.047712 -1.492917 1.209608 0
M  V30 24 C 7.444444 -2.315596 0.261190 0
M  V30 25 C 6.147432 -2.040500 -0.182084 0
M  V30 26 C 3.002775 -0.088691 0.532007 0
M  V30 27 H 0.106896 0.659555 -2.016252 0
M  V30 28 H -1.356392 2.333422 -0.495999 0
M  V30 29 H -2.279918 -0.456129 0.117644 0
M  V30 30 H -2.583272 1.060283 0.966016 0
M  V30 31 H -4.115299 -0.291928 -1.225595 0
M  V30 32 H -6.001740 1.222974 -0.369711 0
M  V30 33 H -4.883954 1.853076 0.842727 0
M  V30 34 H -6.735117 -1.274583 -0.213274 0
M  V30 35 H -6.854480 -2.866055 2.046221 0
M  V30 36 H -4.375823 0.391584 2.876121 0
M  V30 37 H -4.461496 1.617105 -2.636764 0
M  V30 38 H -3.884287 2.750482 -1.414010 0
M  V30 39 H -2.244891 0.599359 -2.866001 0
M  V30 40 H -1.838717 3.396323 -2.489262 0
M  V30 41 H 1.855433 -0.597847 -2.531067 0
M  V30 42 H 4.232916 -1.235249 -2.169123 0
M  V30 43 H 5.535757 0.739832 1.682851 0
M  V30 44 H 7.819480 0.244892 2.461285 0
M  V30 45 H 9.055072 -1.707965 1.556350 0
M  V30 46 H 7.979959 -3.177389 -0.128583 0
M  V30 47 H 5.692729 -2.713665 -0.903633 0
M  V30 48 H 2.992787 0.201894 1.576127 0
M  V30 END ATOM
M  V30 BEGIN BOND
M  V30 1 2 1 2
M  V30 2 1 2 3
M  V30 3 1 3 4
M  V30 4 1 4 5
M  V30 5 1 5 6
M  V30 6 1 6 7
M  V30 7 1 7 8
M  V30 8 1 8 9
M  V30 9 2 9 10
M  V30 10 1 10 11
M  V30 11 2 11 12
M  V30 12 1 6 13
M  V30 13 1 13 14
M  V30 14 1 14 15
M  V30 15 1 2 16
M  V30 16 2 16 17
M  V30 17 1 17 18
M  V30 18 1 18 19
M  V30 19 1 19 20
M  V30 20 2 20 21
M  V30 21 1 21 22
M  V30 22 2 22 23
M  V30 23 1 23 24
M  V30 24 2 24 25
M  V30 25 2 19 26
M  V30 26 1 14 4
M  V30 27 1 26 16
M  V30 28 1 12 8
M  V30 29 1 25 20
M  V30 30 1 3 27
M  V30 31 1 4 28 CFG=1
M  V30 32 1 5 29
M  V30 33 1 5 30
M  V30 34 1 6 31
M  V30 35 1 7 32
M  V30 36 1 7 33
M  V30 37 1 9 34
M  V30 38 1 10 35
M  V30 39 1 12 36
M  V30 40 1 13 37
M  V30 41 1 13 38
M  V30 42 1 14 39 CFG=3
M  V30 43 1 15 40
M  V30 44 1 17 41
M  V30 45 1 18 42
M  V30 46 1 21 43
M  V30 47 1 22 44
M  V30 48 1 23 45
M  V30 49 1 24 46
M  V30 50 1 25 47
M  V30 51 1 26 48
M  V30 END BOND
M  V30 BEGIN COLLECTION
M  V30 MDLV30/STERAC1 ATOMS=(2 4 14)
M  V30 END COLLECTION
M  V30 END CTAB
M  END
>  <_CXSMILES_Data>  (947) 
|&1:3,13|

$$$$
OCNT-2315201
     RDKit          3D

 48 50  0  0  0  0  0  0  0  0999 V2000
   -3.8408    1.5692    2.2804 C   0  0  0  0  0  0  0  0  0  0  0  0
   -3.2839    0.4894    1.5419 O   0  0  0  0  0  0  0  0  0  0  0  0
   -3.3634    0.5514    0.1749 C   0  0  0  0  0  0  0  0  0  0  0  0
   -4.0040    1.5693   -0.5393 C   0  0  0  0  0  0  0  0  0  0  0  0
   -4.0411    1.5395   -1.9353 C   0  0  0  0  0  0  0  0  0  0  0  0
   -3.4449    0.4910   -2.6279 C   0  0  0  0  0  0  0  0  0  0  0  0
   -2.8053   -0.5292   -1.9265 C   0  0  0  0  0  0  0  0  0  0  0  0
   -2.7480   -0.5073   -0.5234 C   0  0  0  0  0  0  0  0  0  0  0  0
   -2.0387   -1.6259    0.2140 C   0  0  0  0  0  0  0  0  0  0  0  0
   -0.6981   -1.2321    0.8862 C   0  0  0  0  0  0  0  0  0  0  0  0
   -0.3793   -2.2418    2.0004 C   0  0  0  0  0  0  0  0  0  0  0  0
    0.4805   -1.1936   -0.0137 N   0  0  0  0  0  0  0  0  0  0  0  0
    0.5890   -2.1156   -1.1374 C   0  0  0  0  0  0  0  0  0  0  0  0
    1.1362    0.0236   -0.2114 C   0  0  0  0  0  0  0  0  0  0  0  0
    0.4556    1.1905   -0.5890 C   0  0  0  0  0  0  0  0  0  0  0  0
    1.1480    2.3759   -0.8045 C   0  0  0  0  0  0  0  0  0  0  0  0
    2.4804    2.5424   -0.6832 N   0  0  0  0  0  0  0  0  0  0  0  0
    3.1094    1.4096   -0.3089 C   0  0  0  0  0  0  0  0  0  0  0  0
    2.5373    0.1673   -0.0608 C   0  0  0  0  0  0  0  0  0  0  0  0
    3.6398   -0.6499    0.3290 C   0  0  0  0  0  0  0  0  0  0  0  0
    3.6209   -2.0712    0.7528 C   0  0  0  0  0  0  0  0  0  0  0  0
    4.8069    0.0129    0.2906 N   0  0  0  0  0  0  0  0  0  0  0  0
    4.4506    1.2569   -0.0943 N   0  0  0  0  0  0  0  0  0  0  0  0
    5.4658    2.2702   -0.2290 C   0  0  0  0  0  0  0  0  0  0  0  0
   -3.3477    2.5147    2.0313 H   0  0  0  0  0  0  0  0  0  0  0  0
   -3.6648    1.3727    3.3424 H   0  0  0  0  0  0  0  0  0  0  0  0
   -4.9232    1.6333    2.1291 H   0  0  0  0  0  0  0  0  0  0  0  0
   -4.4907    2.4003   -0.0399 H   0  0  0  0  0  0  0  0  0  0  0  0
   -4.5432    2.3342   -2.4814 H   0  0  0  0  0  0  0  0  0  0  0  0
   -3.4799    0.4653   -3.7141 H   0  0  0  0  0  0  0  0  0  0  0  0
   -2.3494   -1.3437   -2.4838 H   0  0  0  0  0  0  0  0  0  0  0  0
   -2.7390   -1.9849    0.9814 H   0  0  0  0  0  0  0  0  0  0  0  0
   -1.9095   -2.4865   -0.4527 H   0  0  0  0  0  0  0  0  0  0  0  0
   -0.8104   -0.2629    1.3883 H   0  0  0  0  0  0  0  0  0  0  0  0
   -1.1802   -2.2658    2.7470 H   0  0  0  0  0  0  0  0  0  0  0  0
   -0.2547   -3.2542    1.6010 H   0  0  0  0  0  0  0  0  0  0  0  0
    0.5481   -1.9709    2.5168 H   0  0  0  0  0  0  0  0  0  0  0  0
    1.6172   -2.1892   -1.5078 H   0  0  0  0  0  0  0  0  0  0  0  0
   -0.0409   -1.7966   -1.9732 H   0  0  0  0  0  0  0  0  0  0  0  0
    0.2906   -3.1259   -0.8394 H   0  0  0  0  0  0  0  0  0  0  0  0
   -0.6158    1.1850   -0.7381 H   0  0  0  0  0  0  0  0  0  0  0  0
    0.6059    3.2699   -1.1038 H   0  0  0  0  0  0  0  0  0  0  0  0
    4.5365   -2.3374    1.2918 H   0  0  0  0  0  0  0  0  0  0  0  0
    2.7785   -2.2708    1.4208 H   0  0  0  0  0  0  0  0  0  0  0  0
    3.5408   -2.7286   -0.1180 H   0  0  0  0  0  0  0  0  0  0  0  0
    5.9112    2.4423    0.7541 H   0  0  0  0  0  0  0  0  0  0  0  0
    6.2212    1.9103   -0.9323 H   0  0  0  0  0  0  0  0  0  0  0  0
    5.0265    3.1969   -0.6045 H   0  0  0  0  0  0  0  0  0  0  0  0
  1  2  1  0
  2  3  1  0
  3  4  2  0
  4  5  1  0
  5  6  2  0
  6  7  1  0
  7  8  2  0
  8  9  1  0
  9 10  1  0
 10 11  1  0
 10 12  1  0
 12 13  1  0
 12 14  1  0
 14 15  2  0
 15 16  1  0
 16 17  2  0
 17 18  1  0
 18 19  2  0
 19 20  1  0
 20 21  1  0
 20 22  2  0
 22 23  1  0
 23 24  1  0
  8  3  1  0
 19 14  1  0
 23 18  1  0
  1 25  1  0
  1 26  1  0
  1 27  1  0
  4 28  1  0
  5 29  1  0
  6 30  1  0
  7 31  1  0
  9 32  1  0
  9 33  1  0
 10 34  1  0
 11 35  1  0
 11 36  1  0
 11 37  1  0
 13 38  1  0
 13 39  1  0
 13 40  1  0
 15 41  1  0
 16 42  1  0
 21 43  1  0
 21 44  1  0
 21 45  1  0
 24 46  1  0
 24 47  1  0
 24 48  1  0
M  END
$$$$
OCNT-2315218
     RDKit          3D

 44 48  0  0  0  0  0  0  0  0999 V2000
   -5.3395    2.7792    0.6495 C   0  0  0  0  0  0  0  0  0  0  0  0
   -5.0717    1.2859    0.7419 C   0  0  0  0  0  0  0  0  0  0  0  0
   -3.6789    0.9714    1.3104 C   0  0  0  0  0  0  0  0  0  0  0  0
   -3.3437   -0.2060    0.4775 C   0  0  0  0  0  0  0  0  0  0  0  0
   -2.3091   -1.1145    0.6103 C   0  0  0  0  0  0  0  0  0  0  0  0
   -2.1861   -2.1047   -0.3733 C   0  0  0  0  0  0  0  0  0  0  0  0
   -0.8775   -3.2989   -0.2538 S   0  0  0  0  0  0  0  0  0  0  0  0
   -0.2585   -3.1899    1.0494 O   0  0  0  0  0  0  0  0  0  0  0  0
   -1.3997   -4.5629   -0.7291 O   0  0  0  0  0  0  0  0  0  0  0  0
    0.2132   -2.7700   -1.4364 N   0  0  0  0  0  0  0  0  0  0  0  0
    1.0864   -1.6978   -1.1024 C   0  0  0  0  0  0  0  0  0  0  0  0
    0.6655   -0.3824   -1.3395 C   0  0  0  0  0  0  0  0  0  0  0  0
    1.4748    0.7101   -0.9907 C   0  0  0  0  0  0  0  0  0  0  0  0
    2.7128    0.4466   -0.3922 C   0  0  0  0  0  0  0  0  0  0  0  0
    3.6974    1.2893    0.0502 N   0  0  0  0  0  0  0  0  0  0  0  0
    4.6224    0.4733    0.5240 C   0  0  0  0  0  0  0  0  0  0  0  0
    5.9625    0.9675    1.1521 C   0  0  0  0  0  0  0  0  0  0  0  0
    6.0058    2.2950    1.8636 C   0  0  0  0  0  0  0  0  0  0  0  0
    6.6820    2.1368    0.5313 C   0  0  0  0  0  0  0  0  0  0  0  0
    4.3138   -0.8594    0.4189 O   0  0  0  0  0  0  0  0  0  0  0  0
    3.0850   -0.8685   -0.1709 C   0  0  0  0  0  0  0  0  0  0  0  0
    2.3176   -1.9792   -0.5004 C   0  0  0  0  0  0  0  0  0  0  0  0
   -3.0879   -2.1833   -1.4527 C   0  0  0  0  0  0  0  0  0  0  0  0
   -4.1187   -1.2483   -1.5684 C   0  0  0  0  0  0  0  0  0  0  0  0
   -4.2243   -0.2779   -0.5917 C   0  0  0  0  0  0  0  0  0  0  0  0
   -5.1777    0.7058   -0.5854 O   0  0  0  0  0  0  0  0  0  0  0  0
   -6.3369    2.9619    0.2354 H   0  0  0  0  0  0  0  0  0  0  0  0
   -5.2750    3.2550    1.6325 H   0  0  0  0  0  0  0  0  0  0  0  0
   -4.6266    3.2647   -0.0259 H   0  0  0  0  0  0  0  0  0  0  0  0
   -5.8479    0.8159    1.3614 H   0  0  0  0  0  0  0  0  0  0  0  0
   -2.9616    1.7782    1.1267 H   0  0  0  0  0  0  0  0  0  0  0  0
   -3.7220    0.7481    2.3799 H   0  0  0  0  0  0  0  0  0  0  0  0
   -1.6124   -1.0510    1.4412 H   0  0  0  0  0  0  0  0  0  0  0  0
    0.6106   -3.5667   -1.9342 H   0  0  0  0  0  0  0  0  0  0  0  0
   -0.2964   -0.1918   -1.8111 H   0  0  0  0  0  0  0  0  0  0  0  0
    1.1571    1.7301   -1.1761 H   0  0  0  0  0  0  0  0  0  0  0  0
    6.5730    0.1688    1.5584 H   0  0  0  0  0  0  0  0  0  0  0  0
    6.6292    2.3760    2.7459 H   0  0  0  0  0  0  0  0  0  0  0  0
    5.1000    2.8903    1.9032 H   0  0  0  0  0  0  0  0  0  0  0  0
    6.2305    2.6265   -0.3247 H   0  0  0  0  0  0  0  0  0  0  0  0
    7.7648    2.1109    0.5087 H   0  0  0  0  0  0  0  0  0  0  0  0
    2.6535   -2.9839   -0.2814 H   0  0  0  0  0  0  0  0  0  0  0  0
   -2.9849   -2.9664   -2.2009 H   0  0  0  0  0  0  0  0  0  0  0  0
   -4.8211   -1.2835   -2.3941 H   0  0  0  0  0  0  0  0  0  0  0  0
  1  2  1  0
  2  3  1  0
  3  4  1  0
  4  5  1  0
  5  6  2  0
  6  7  1  0
  7  8  2  0
  7  9  2  0
  7 10  1  0
 10 11  1  0
 11 12  2  0
 12 13  1  0
 13 14  2  0
 14 15  1  0
 15 16  2  0
 16 17  1  0
 17 18  1  0
 18 19  1  0
 16 20  1  0
 20 21  1  0
 21 22  2  0
  6 23  1  0
 23 24  2  0
 24 25  1  0
 25 26  1  0
 26  2  1  0
 25  4  2  0
 22 11  1  0
 21 14  1  0
 19 17  1  0
  1 27  1  0
  1 28  1  0
  1 29  1  0
  2 30  1  0
  3 31  1  0
  3 32  1  0
  5 33  1  0
 10 34  1  0
 12 35  1  0
 13 36  1  0
 17 37  1  0
 18 38  1  0
 18 39  1  0
 19 40  1  0
 19 41  1  0
 22 42  1  0
 23 43  1  0
 24 44  1  0
M  END
$$$$
OCNT-2315230
     RDKit          3D

 42 44  0  0  0  0  0  0  0  0999 V2000
   -5.5902    0.8632    0.1331 C   0  0  0  0  0  0  0  0  0  0  0  0
   -4.2227    0.1995    0.3785 C   0  0  0  0  0  0  0  0  0  0  0  0
   -4.4359   -0.9381    1.3978 C   0  0  0  0  0  0  0  0  0  0  0  0
   -3.2433    1.2438    0.9426 C   0  0  0  0  0  0  0  0  0  0  0  0
   -1.8116    0.7172    1.0438 C   0  0  0  0  0  0  0  0  0  0  0  0
   -1.4630   -0.2630   -0.0831 C   0  0  0  0  0  0  0  0  0  0  0  0
   -0.0120   -0.1274   -0.5544 C   0  0  0  0  0  0  0  0  0  0  0  0
    0.9952   -0.5357    0.5159 C   0  0  0  0  0  0  0  0  0  0  0  0
    2.3602   -0.4111    0.0371 N   0  0  0  0  0  0  0  0  0  0  0  0
    3.0209    0.7937    0.0915 C   0  0  0  0  0  0  0  0  0  0  0  0
    2.5458    1.8096    0.5856 O   0  0  0  0  0  0  0  0  0  0  0  0
    4.3522    0.8044   -0.5407 C   0  0  0  0  0  0  0  0  0  0  0  0
    4.8044    1.9062   -1.1724 C   0  0  0  0  0  0  0  0  0  0  0  0
    6.4151    1.6913   -1.8762 S   0  0  0  0  0  0  0  0  0  0  0  0
    6.4349    0.0760   -1.2515 C   0  0  0  0  0  0  0  0  0  0  0  0
    7.2207   -1.0356   -1.1957 C   0  0  0  0  0  0  0  0  0  0  0  0
    6.5689   -2.0146   -0.4677 N   0  0  0  0  0  0  0  0  0  0  0  0
    5.4208   -1.4785   -0.0899 C   0  0  0  0  0  0  0  0  0  0  0  0
    5.2837   -0.2104   -0.5764 N   0  0  0  0  0  0  0  0  0  0  0  0
   -2.3119   -0.0227   -1.2063 O   0  0  0  0  0  0  0  0  0  0  0  0
   -3.6766   -0.3745   -0.9527 C   0  0  0  0  0  0  0  0  0  0  0  0
   -5.5064    1.6904   -0.5808 H   0  0  0  0  0  0  0  0  0  0  0  0
   -6.3120    0.1451   -0.2722 H   0  0  0  0  0  0  0  0  0  0  0  0
   -6.0063    1.2687    1.0624 H   0  0  0  0  0  0  0  0  0  0  0  0
   -5.1681   -1.6651    1.0278 H   0  0  0  0  0  0  0  0  0  0  0  0
   -3.5115   -1.4842    1.6078 H   0  0  0  0  0  0  0  0  0  0  0  0
   -4.8112   -0.5471    2.3505 H   0  0  0  0  0  0  0  0  0  0  0  0
   -3.2369    2.1207    0.2804 H   0  0  0  0  0  0  0  0  0  0  0  0
   -3.5721    1.6075    1.9239 H   0  0  0  0  0  0  0  0  0  0  0  0
   -1.6545    0.2221    2.0099 H   0  0  0  0  0  0  0  0  0  0  0  0
   -1.1342    1.5803    1.0381 H   0  0  0  0  0  0  0  0  0  0  0  0
   -1.6200   -1.2967    0.2506 H   0  0  0  0  0  0  0  0  0  0  0  0
    0.1345   -0.7472   -1.4493 H   0  0  0  0  0  0  0  0  0  0  0  0
    0.1751    0.9010   -0.8902 H   0  0  0  0  0  0  0  0  0  0  0  0
    0.8821    0.0746    1.4179 H   0  0  0  0  0  0  0  0  0  0  0  0
    0.8512   -1.5849    0.7948 H   0  0  0  0  0  0  0  0  0  0  0  0
    2.6979   -1.1398   -0.5782 H   0  0  0  0  0  0  0  0  0  0  0  0
    4.2653    2.8411   -1.2697 H   0  0  0  0  0  0  0  0  0  0  0  0
    8.2032   -1.1999   -1.6174 H   0  0  0  0  0  0  0  0  0  0  0  0
    4.6787   -1.9617    0.5308 H   0  0  0  0  0  0  0  0  0  0  0  0
   -3.7630   -1.4672   -0.9895 H   0  0  0  0  0  0  0  0  0  0  0  0
   -4.2473    0.0069   -1.8067 H   0  0  0  0  0  0  0  0  0  0  0  0
  1  2  1  0
  2  3  1  0
  2  4  1  0
  4  5  1  0
  5  6  1  0
  6  7  1  0
  7  8  1  0
  8  9  1  0
  9 10  1  0
 10 11  2  0
 10 12  1  0
 12 13  2  0
 13 14  1  0
 14 15  1  0
 15 16  2  0
 16 17  1  0
 17 18  2  0
 18 19  1  0
  6 20  1  0
 20 21  1  0
 21  2  1  0
 19 12  1  0
 19 15  1  0
  1 22  1  0
  1 23  1  0
  1 24  1  0
  3 25  1  0
  3 26  1  0
  3 27  1  0
  4 28  1  0
  4 29  1  0
  5 30  1  0
  5 31  1  0
  6 32  1  0
  7 33  1  0
  7 34  1  0
  8 35  1  0
  8 36  1  0
  9 37  1  0
 13 38  1  0
 16 39  1  0
 18 40  1  0
 21 41  1  0
 21 42  1  0
M  END
$$$$
OCNT-2315245
     RDKit          3D

 40 43  0  0  0  0  0  0  0  0999 V2000
   -5.3703   -1.9991   -2.4278 O   0  0  0  0  0  0  0  0  0  0  0  0
   -4.6323   -1.3672   -1.6810 C   0  0  0  0  0  0  0  0  0  0  0  0
   -3.5500   -0.6585   -2.1465 N   0  0  0  0  0  0  0  0  0  0  0  0
   -2.6937    0.0858   -1.3919 N   0  0  0  0  0  0  0  0  0  0  0  0
   -2.9016    0.1350   -0.1047 C   0  0  0  0  0  0  0  0  0  0  0  0
   -1.9137    0.9866    0.6884 C   0  0  0  0  0  0  0  0  0  0  0  0
   -2.2934    1.7516    1.5588 O   0  0  0  0  0  0  0  0  0  0  0  0
   -0.6088    0.8140    0.2862 N   0  0  0  0  0  0  0  0  0  0  0  0
    0.4183    1.7100    0.7514 C   0  0  0  0  0  0  0  0  0  0  0  0
    1.7780    1.2180    0.3612 C   0  0  0  0  0  0  0  0  0  0  0  0
    2.3677    1.5745   -0.8531 C   0  0  0  0  0  0  0  0  0  0  0  0
    3.6270    1.0762   -1.1909 C   0  0  0  0  0  0  0  0  0  0  0  0
    4.2669    0.2197   -0.2994 C   0  0  0  0  0  0  0  0  0  0  0  0
    5.5509   -0.3100   -0.6030 N   0  0  0  0  0  0  0  0  0  0  0  0
    6.3355   -0.1037   -1.7171 C   0  0  0  0  0  0  0  0  0  0  0  0
    7.4768   -0.8449   -1.5144 C   0  0  0  0  0  0  0  0  0  0  0  0
    7.4266   -1.5009   -0.3174 N   0  0  0  0  0  0  0  0  0  0  0  0
    6.2675   -1.1642    0.2062 C   0  0  0  0  0  0  0  0  0  0  0  0
    3.7070   -0.1487    0.8820 N   0  0  0  0  0  0  0  0  0  0  0  0
    2.4862    0.3504    1.1815 C   0  0  0  0  0  0  0  0  0  0  0  0
   -3.9909   -0.5897    0.5785 C   0  0  0  0  0  0  0  0  0  0  0  0
   -4.1811   -0.5788    1.9651 C   0  0  0  0  0  0  0  0  0  0  0  0
   -5.2372   -1.2996    2.5315 C   0  0  0  0  0  0  0  0  0  0  0  0
   -6.1014   -2.0357    1.7218 C   0  0  0  0  0  0  0  0  0  0  0  0
   -5.9105   -2.0565    0.3412 C   0  0  0  0  0  0  0  0  0  0  0  0
   -4.8528   -1.3345   -0.2250 C   0  0  0  0  0  0  0  0  0  0  0  0
   -3.3907   -0.6672   -3.1499 H   0  0  0  0  0  0  0  0  0  0  0  0
   -0.4912    0.3539   -0.6123 H   0  0  0  0  0  0  0  0  0  0  0  0
    0.2278    2.7007    0.3216 H   0  0  0  0  0  0  0  0  0  0  0  0
    0.3393    1.8191    1.8398 H   0  0  0  0  0  0  0  0  0  0  0  0
    1.8535    2.2418   -1.5418 H   0  0  0  0  0  0  0  0  0  0  0  0
    4.0662    1.3710   -2.1366 H   0  0  0  0  0  0  0  0  0  0  0  0
    6.0439    0.5275   -2.5417 H   0  0  0  0  0  0  0  0  0  0  0  0
    8.3326   -0.9389   -2.1710 H   0  0  0  0  0  0  0  0  0  0  0  0
    5.8879   -1.5016    1.1623 H   0  0  0  0  0  0  0  0  0  0  0  0
    2.0804    0.0164    2.1338 H   0  0  0  0  0  0  0  0  0  0  0  0
   -3.5297   -0.0170    2.6296 H   0  0  0  0  0  0  0  0  0  0  0  0
   -5.3864   -1.2842    3.6095 H   0  0  0  0  0  0  0  0  0  0  0  0
   -6.9223   -2.5945    2.1660 H   0  0  0  0  0  0  0  0  0  0  0  0
   -6.5818   -2.6351   -0.2906 H   0  0  0  0  0  0  0  0  0  0  0  0
  1  2  2  0
  2  3  1  0
  3  4  1  0
  4  5  2  0
  5  6  1  0
  6  7  2  0
  6  8  1  0
  8  9  1  0
  9 10  1  0
 10 11  2  0
 11 12  1  0
 12 13  2  0
 13 14  1  0
 14 15  1  0
 15 16  2  0
 16 17  1  0
 17 18  2  0
 13 19  1  0
 19 20  2  0
  5 21  1  0
 21 22  2  0
 22 23  1  0
 23 24  2  0
 24 25  1  0
 25 26  2  0
 26  2  1  0
 20 10  1  0
 26 21  1  0
 18 14  1  0
  3 27  1  0
  8 28  1  0
  9 29  1  0
  9 30  1  0
 11 31  1  0
 12 32  1  0
 15 33  1  0
 16 34  1  0
 18 35  1  0
 20 36  1  0
 22 37  1  0
 23 38  1  0
 24 39  1  0
 25 40  1  0
M  END
$$$$
OCNT-2315252
     RDKit          3D

 51 53  0  0  0  0  0  0  0  0999 V2000
    7.7709    2.9722    1.0493 C   0  0  0  0  0  0  0  0  0  0  0  0
    7.3169    1.6249    1.0408 O   0  0  0  0  0  0  0  0  0  0  0  0
    5.9742    1.4253    0.8665 C   0  0  0  0  0  0  0  0  0  0  0  0
    5.0027    2.4212    0.7843 C   0  0  0  0  0  0  0  0  0  0  0  0
    3.6610    2.0714    0.6089 C   0  0  0  0  0  0  0  0  0  0  0  0
    3.2835    0.7288    0.5110 C   0  0  0  0  0  0  0  0  0  0  0  0
    4.2479   -0.2744    0.5846 C   0  0  0  0  0  0  0  0  0  0  0  0
    4.0221   -1.6230    0.5071 O   0  0  0  0  0  0  0  0  0  0  0  0
    2.7239   -2.0642    0.1042 C   0  0  0  0  0  0  0  0  0  0  0  0
    1.8334   -2.3035    1.3271 C   0  0  0  0  0  0  0  0  0  0  0  0
    0.4995   -2.7696    0.9827 N   0  0  0  0  0  0  0  0  0  0  0  0
   -0.4142   -1.8759    0.4531 C   0  0  0  0  0  0  0  0  0  0  0  0
   -0.1263   -0.7133    0.2037 O   0  0  0  0  0  0  0  0  0  0  0  0
   -1.6247   -2.4977    0.2375 N   0  0  0  0  0  0  0  0  0  0  0  0
   -2.8306   -1.8948   -0.1892 C   0  0  0  0  0  0  0  0  0  0  0  0
   -3.0281   -0.5067   -0.1131 C   0  0  0  0  0  0  0  0  0  0  0  0
   -4.2272    0.1035   -0.5275 C   0  0  0  0  0  0  0  0  0  0  0  0
   -4.4093    1.5628   -0.4329 C   0  0  0  0  0  0  0  0  0  0  0  0
   -3.4114    2.4659   -0.8266 C   0  0  0  0  0  0  0  0  0  0  0  0
   -3.6167    3.8407   -0.7168 C   0  0  0  0  0  0  0  0  0  0  0  0
   -4.8262    4.2864   -0.2146 C   0  0  0  0  0  0  0  0  0  0  0  0
   -5.8204    3.4634    0.1762 N   0  0  0  0  0  0  0  0  0  0  0  0
   -5.5850    2.1325    0.0619 C   0  0  0  0  0  0  0  0  0  0  0  0
   -5.2407   -0.7258   -1.0252 C   0  0  0  0  0  0  0  0  0  0  0  0
   -5.0712   -2.1105   -1.0896 C   0  0  0  0  0  0  0  0  0  0  0  0
   -3.8732   -2.7105   -0.6710 C   0  0  0  0  0  0  0  0  0  0  0  0
   -3.7535   -4.2071   -0.7604 C   0  0  0  0  0  0  0  0  0  0  0  0
    5.5868    0.0833    0.7714 C   0  0  0  0  0  0  0  0  0  0  0  0
    8.8617    2.9561    1.1436 H   0  0  0  0  0  0  0  0  0  0  0  0
    7.3691    3.5179    1.9102 H   0  0  0  0  0  0  0  0  0  0  0  0
    7.5267    3.4794    0.1100 H   0  0  0  0  0  0  0  0  0  0  0  0
    5.2526    3.4750    0.8565 H   0  0  0  0  0  0  0  0  0  0  0  0
    2.9008    2.8464    0.5518 H   0  0  0  0  0  0  0  0  0  0  0  0
    2.2272    0.5085    0.3857 H   0  0  0  0  0  0  0  0  0  0  0  0
    2.8696   -3.0226   -0.4095 H   0  0  0  0  0  0  0  0  0  0  0  0
    2.2740   -1.4069   -0.6482 H   0  0  0  0  0  0  0  0  0  0  0  0
    1.7453   -1.3966    1.9365 H   0  0  0  0  0  0  0  0  0  0  0  0
    2.2911   -3.0668    1.9672 H   0  0  0  0  0  0  0  0  0  0  0  0
    0.0912   -3.4339    1.6255 H   0  0  0  0  0  0  0  0  0  0  0  0
   -1.5657   -3.5019    0.1755 H   0  0  0  0  0  0  0  0  0  0  0  0
   -2.2505    0.1288    0.3046 H   0  0  0  0  0  0  0  0  0  0  0  0
   -2.4675    2.1041   -1.2287 H   0  0  0  0  0  0  0  0  0  0  0  0
   -2.8490    4.5451   -1.0179 H   0  0  0  0  0  0  0  0  0  0  0  0
   -5.0340    5.3474   -0.1111 H   0  0  0  0  0  0  0  0  0  0  0  0
   -6.4055    1.5103    0.4103 H   0  0  0  0  0  0  0  0  0  0  0  0
   -6.1792   -0.3015   -1.3792 H   0  0  0  0  0  0  0  0  0  0  0  0
   -5.8865   -2.7176   -1.4789 H   0  0  0  0  0  0  0  0  0  0  0  0
   -4.6449   -4.6581   -1.2111 H   0  0  0  0  0  0  0  0  0  0  0  0
   -2.8999   -4.4852   -1.3867 H   0  0  0  0  0  0  0  0  0  0  0  0
   -3.6334   -4.6377    0.2389 H   0  0  0  0  0  0  0  0  0  0  0  0
    6.3428   -0.6956    0.8367 H   0  0  0  0  0  0  0  0  0  0  0  0
  1  2  1  0
  2  3  1  0
  3  4  1  0
  4  5  2  0
  5  6  1  0
  6  7  2  0
  7  8  1  0
  8  9  1  0
  9 10  1  0
 10 11  1  0
 11 12  1  0
 12 13  2  0
 12 14  1  0
 14 15  1  0
 15 16  1  0
 16 17  2  0
 17 18  1  0
 18 19  1  0
 19 20  2  0
 20 21  1  0
 21 22  2  0
 22 23  1  0
 17 24  1  0
 24 25  2  0
 25 26  1  0
 26 27  1  0
  7 28  1  0
 28  3  2  0
 26 15  2  0
 23 18  2  0
  1 29  1  0
  1 30  1  0
  1 31  1  0
  4 32  1  0
  5 33  1  0
  6 34  1  0
  9 35  1  0
  9 36  1  0
 10 37  1  0
 10 38  1  0
 11 39  1  0
 14 40  1  0
 16 41  1  0
 19 42  1  0
 20 43  1  0
 21 44  1  0
 23 45  1  0
 24 46  1  0
 25 47  1  0
 27 48  1  0
 27 49  1  0
 27 50  1  0
 28 51  1  0
M  END
$$$$
OCNT-2315259
     RDKit          3D

 37 39  0  0  0  0  0  0  0  0999 V2000
   -3.1781    1.7145   -0.8101 C   0  0  0  0  0  0  0  0  0  0  0  0
   -3.7169    0.3707   -0.3986 C   0  0  0  0  0  0  0  0  0  0  0  0
   -4.9065    0.3217    0.3500 C   0  0  0  0  0  0  0  0  0  0  0  0
   -5.4465   -0.8994    0.7499 C   0  0  0  0  0  0  0  0  0  0  0  0
   -6.9022   -0.9316    1.6673 Cl  0  0  0  0  0  0  0  0  0  0  0  0
   -4.8167   -2.0906    0.4123 C   0  0  0  0  0  0  0  0  0  0  0  0
   -3.6376   -2.0592   -0.3325 C   0  0  0  0  0  0  0  0  0  0  0  0
   -3.0707   -0.8368   -0.7490 C   0  0  0  0  0  0  0  0  0  0  0  0
   -1.7861   -0.8734   -1.5541 C   0  0  0  0  0  0  0  0  0  0  0  0
   -0.6747   -0.9735   -0.5739 C   0  0  0  0  0  0  0  0  0  0  0  0
   -0.1463   -2.1491   -0.2004 N   0  0  0  0  0  0  0  0  0  0  0  0
    0.8644   -1.7791    0.6875 O   0  0  0  0  0  0  0  0  0  0  0  0
    0.8529   -0.4152    0.7419 C   0  0  0  0  0  0  0  0  0  0  0  0
    1.8417    0.2260    1.6420 C   0  0  0  0  0  0  0  0  0  0  0  0
    3.1757    0.4665    0.9736 C   0  0  0  0  0  0  0  0  0  0  0  0
    4.2364   -0.4340    1.1524 C   0  0  0  0  0  0  0  0  0  0  0  0
    5.4620   -0.2143    0.5219 C   0  0  0  0  0  0  0  0  0  0  0  0
    5.6294    0.8991   -0.2923 C   0  0  0  0  0  0  0  0  0  0  0  0
    6.8431    1.0729   -0.8885 O   0  0  0  0  0  0  0  0  0  0  0  0
    4.5887    1.7999   -0.4906 C   0  0  0  0  0  0  0  0  0  0  0  0
    3.3620    1.5816    0.1406 C   0  0  0  0  0  0  0  0  0  0  0  0
   -0.0677    0.1307   -0.0223 N   0  0  0  0  0  0  0  0  0  0  0  0
   -3.1838    1.8071   -1.9006 H   0  0  0  0  0  0  0  0  0  0  0  0
   -3.7868    2.5317   -0.4084 H   0  0  0  0  0  0  0  0  0  0  0  0
   -2.1611    1.8548   -0.4336 H   0  0  0  0  0  0  0  0  0  0  0  0
   -5.4156    1.2430    0.6251 H   0  0  0  0  0  0  0  0  0  0  0  0
   -5.2325   -3.0443    0.7252 H   0  0  0  0  0  0  0  0  0  0  0  0
   -3.1510   -3.0013   -0.5832 H   0  0  0  0  0  0  0  0  0  0  0  0
   -1.6725    0.0155   -2.1818 H   0  0  0  0  0  0  0  0  0  0  0  0
   -1.7925   -1.7324   -2.2359 H   0  0  0  0  0  0  0  0  0  0  0  0
    1.9808   -0.3885    2.5402 H   0  0  0  0  0  0  0  0  0  0  0  0
    1.4430    1.1837    1.9996 H   0  0  0  0  0  0  0  0  0  0  0  0
    4.1178   -1.3143    1.7806 H   0  0  0  0  0  0  0  0  0  0  0  0
    6.2829   -0.9119    0.6623 H   0  0  0  0  0  0  0  0  0  0  0  0
    6.8084    1.8767   -1.4321 H   0  0  0  0  0  0  0  0  0  0  0  0
    4.7096    2.6688   -1.1296 H   0  0  0  0  0  0  0  0  0  0  0  0
    2.5468    2.2839   -0.0253 H   0  0  0  0  0  0  0  0  0  0  0  0
  1  2  1  0
  2  3  1  0
  3  4  2  0
  4  5  1  0
  4  6  1  0
  6  7  2  0
  7  8  1  0
  8  9  1  0
  9 10  1  0
 10 11  2  0
 11 12  1  0
 12 13  1  0
 13 14  1  0
 14 15  1  0
 15 16  1  0
 16 17  2  0
 17 18  1  0
 18 19  1  0
 18 20  2  0
 20 21  1  0
 13 22  2  0
  8  2  2  0
 22 10  1  0
 21 15  2  0
  1 23  1  0
  1 24  1  0
  1 25  1  0
  3 26  1  0
  6 27  1  0
  7 28  1  0
  9 29  1  0
  9 30  1  0
 14 31  1  0
 14 32  1  0
 16 33  1  0
 17 34  1  0
 19 35  1  0
 20 36  1  0
 21 37  1  0
M  END
$$$$
OCNT-2315261
     RDKit          3D

 45 47  0  0  0  0  0  0  0  0999 V2000
    5.7624   -0.2671   -0.5409 C   0  0  0  0  0  0  0  0  0  0  0  0
    5.2137    1.0923   -0.5071 N   0  0  0  0  0  0  0  0  0  0  0  0
    6.2330    2.0977   -0.1829 C   0  0  0  0  0  0  0  0  0  0  0  0
    4.0659    1.2237    0.2183 C   0  0  0  0  0  0  0  0  0  0  0  0
    3.9307    1.7716    1.4059 N   0  0  0  0  0  0  0  0  0  0  0  0
    2.6062    1.6588    1.7266 C   0  0  0  0  0  0  0  0  0  0  0  0
    1.9000    1.0495    0.7130 C   0  0  0  0  0  0  0  0  0  0  0  0
    0.4567    0.7091    0.6008 C   0  0  0  0  0  0  0  0  0  0  0  0
    0.2498   -0.7309    0.4823 N   0  0  0  0  0  0  0  0  0  0  0  0
   -1.0921   -1.1293    0.3855 C   0  0  0  0  0  0  0  0  0  0  0  0
   -1.3658   -2.4807    0.3520 C   0  0  0  0  0  0  0  0  0  0  0  0
   -2.6887   -2.8620    0.2161 C   0  0  0  0  0  0  0  0  0  0  0  0
   -3.0201   -4.3427    0.1619 C   0  0  0  0  0  0  0  0  0  0  0  0
   -2.5943   -4.9288   -0.9939 F   0  0  0  0  0  0  0  0  0  0  0  0
   -4.3501   -4.6217    0.2563 F   0  0  0  0  0  0  0  0  0  0  0  0
   -2.4225   -5.0457    1.1687 F   0  0  0  0  0  0  0  0  0  0  0  0
   -3.6832   -1.9482    0.1051 N   0  0  0  0  0  0  0  0  0  0  0  0
   -3.3312   -0.6517    0.1285 C   0  0  0  0  0  0  0  0  0  0  0  0
   -4.3953    0.3520    0.0013 C   0  0  0  0  0  0  0  0  0  0  0  0
   -5.7514    0.0076   -0.1196 C   0  0  0  0  0  0  0  0  0  0  0  0
   -6.7315    0.9935   -0.2377 C   0  0  0  0  0  0  0  0  0  0  0  0
   -6.3331    2.3175   -0.2325 C   0  0  0  0  0  0  0  0  0  0  0  0
   -5.0477    2.7068   -0.1198 N   0  0  0  0  0  0  0  0  0  0  0  0
   -4.1197    1.7202   -0.0072 C   0  0  0  0  0  0  0  0  0  0  0  0
   -2.0653   -0.2165    0.2612 N   0  0  0  0  0  0  0  0  0  0  0  0
    2.8423    0.8101   -0.2648 N   0  0  0  0  0  0  0  0  0  0  0  0
    2.5802    0.2711   -1.5784 C   0  0  0  0  0  0  0  0  0  0  0  0
    6.1100   -0.5779    0.4514 H   0  0  0  0  0  0  0  0  0  0  0  0
    6.6109   -0.3141   -1.2325 H   0  0  0  0  0  0  0  0  0  0  0  0
    5.0231   -0.9944   -0.8923 H   0  0  0  0  0  0  0  0  0  0  0  0
    5.8200    3.1108   -0.2546 H   0  0  0  0  0  0  0  0  0  0  0  0
    6.6394    1.9499    0.8247 H   0  0  0  0  0  0  0  0  0  0  0  0
    7.0607    2.0374   -0.8983 H   0  0  0  0  0  0  0  0  0  0  0  0
    2.2289    2.0244    2.6729 H   0  0  0  0  0  0  0  0  0  0  0  0
   -0.0625    1.0872    1.4918 H   0  0  0  0  0  0  0  0  0  0  0  0
    0.0390    1.2338   -0.2681 H   0  0  0  0  0  0  0  0  0  0  0  0
    0.7041   -1.2156    1.2521 H   0  0  0  0  0  0  0  0  0  0  0  0
   -0.5719   -3.2161    0.4183 H   0  0  0  0  0  0  0  0  0  0  0  0
   -6.0542   -1.0381   -0.1223 H   0  0  0  0  0  0  0  0  0  0  0  0
   -7.7792    0.7302   -0.3311 H   0  0  0  0  0  0  0  0  0  0  0  0
   -7.0568    3.1225   -0.3216 H   0  0  0  0  0  0  0  0  0  0  0  0
   -3.0991    2.0874    0.0794 H   0  0  0  0  0  0  0  0  0  0  0  0
    3.3545    0.5958   -2.2775 H   0  0  0  0  0  0  0  0  0  0  0  0
    2.5679   -0.8190   -1.5045 H   0  0  0  0  0  0  0  0  0  0  0  0
    1.6162    0.6396   -1.9368 H   0  0  0  0  0  0  0  0  0  0  0  0
  1  2  1  0
  2  3  1  0
  2  4  1  0
  4  5  2  0
  5  6  1  0
  6  7  2  0
  7  8  1  0
  8  9  1  0
  9 10  1  0
 10 11  2  0
 11 12  1  0
 12 13  1  0
 13 14  1  0
 13 15  1  0
 13 16  1  0
 12 17  2  0
 17 18  1  0
 18 19  1  0
 19 20  1  0
 20 21  2  0
 21 22  1  0
 22 23  2  0
 23 24  1  0
 18 25  2  0
  7 26  1  0
 26 27  1  0
 26  4  1  0
 25 10  1  0
 24 19  2  0
  1 28  1  0
  1 29  1  0
  1 30  1  0
  3 31  1  0
  3 32  1  0
  3 33  1  0
  6 34  1  0
  8 35  1  0
  8 36  1  0
  9 37  1  0
 11 38  1  0
 20 39  1  0
 21 40  1  0
 22 41  1  0
 24 42  1  0
 27 43  1  0
 27 44  1  0
 27 45  1  0
M  END
$$$$
OCNT-2315271
     RDKit          3D

 45 47  0  0  0  0  0  0  0  0999 V2000
    5.5849   -0.3368   -1.8353 C   0  0  0  0  0  0  0  0  0  0  0  0
    5.6530    0.4385   -0.6458 O   0  0  0  0  0  0  0  0  0  0  0  0
    4.4753    0.9101   -0.1260 C   0  0  0  0  0  0  0  0  0  0  0  0
    3.2039    0.5978   -0.6189 C   0  0  0  0  0  0  0  0  0  0  0  0
    2.0606    1.1348   -0.0101 C   0  0  0  0  0  0  0  0  0  0  0  0
    0.6931    0.8218   -0.5044 C   0  0  0  0  0  0  0  0  0  0  0  0
   -0.2086    1.6432   -0.3906 O   0  0  0  0  0  0  0  0  0  0  0  0
    0.5133   -0.4359   -1.0425 N   0  0  0  0  0  0  0  0  0  0  0  0
   -0.8026   -0.8886   -1.4618 C   0  0  0  0  0  0  0  0  0  0  0  0
   -1.6785   -1.3288   -0.2717 C   0  0  0  0  0  0  0  0  0  0  0  0
   -2.9311   -1.9825   -0.6973 N   0  0  0  0  0  0  0  0  0  0  0  0
   -3.5254   -2.7958    0.3922 C   0  0  0  0  0  0  0  0  0  0  0  0
   -4.0111   -2.0008    1.6252 C   0  0  0  0  0  0  0  0  0  0  0  0
   -4.6978   -0.7553    1.1702 C   0  0  0  0  0  0  0  0  0  0  0  0
   -4.6392   -0.2797   -0.1253 C   0  0  0  0  0  0  0  0  0  0  0  0
   -5.3514    0.9532   -0.2470 C   0  0  0  0  0  0  0  0  0  0  0  0
   -5.9119    1.3515    0.9486 C   0  0  0  0  0  0  0  0  0  0  0  0
   -5.5843    0.2460    2.2146 S   0  0  0  0  0  0  0  0  0  0  0  0
   -3.9261   -1.0164   -1.2258 C   0  0  0  0  0  0  0  0  0  0  0  0
    2.1888    2.0062    1.0742 C   0  0  0  0  0  0  0  0  0  0  0  0
    3.4532    2.3161    1.5721 C   0  0  0  0  0  0  0  0  0  0  0  0
    4.6021    1.7665    0.9845 C   0  0  0  0  0  0  0  0  0  0  0  0
    5.9583    2.1176    1.5337 C   0  0  0  0  0  0  0  0  0  0  0  0
    5.0514   -1.2770   -1.6616 H   0  0  0  0  0  0  0  0  0  0  0  0
    6.6087   -0.5855   -2.1311 H   0  0  0  0  0  0  0  0  0  0  0  0
    5.1308    0.2319   -2.6535 H   0  0  0  0  0  0  0  0  0  0  0  0
    3.0855   -0.0375   -1.4887 H   0  0  0  0  0  0  0  0  0  0  0  0
    1.2263   -1.1384   -0.9012 H   0  0  0  0  0  0  0  0  0  0  0  0
   -1.2787   -0.0778   -2.0225 H   0  0  0  0  0  0  0  0  0  0  0  0
   -0.6405   -1.7285   -2.1462 H   0  0  0  0  0  0  0  0  0  0  0  0
   -1.8607   -0.4795    0.3977 H   0  0  0  0  0  0  0  0  0  0  0  0
   -1.0839   -2.0481    0.3080 H   0  0  0  0  0  0  0  0  0  0  0  0
   -4.3759   -3.3496   -0.0293 H   0  0  0  0  0  0  0  0  0  0  0  0
   -2.8139   -3.5668    0.7136 H   0  0  0  0  0  0  0  0  0  0  0  0
   -3.1535   -1.7327    2.2539 H   0  0  0  0  0  0  0  0  0  0  0  0
   -4.6843   -2.6265    2.2218 H   0  0  0  0  0  0  0  0  0  0  0  0
   -5.4472    1.5221   -1.1638 H   0  0  0  0  0  0  0  0  0  0  0  0
   -6.4966    2.2400    1.1424 H   0  0  0  0  0  0  0  0  0  0  0  0
   -3.4703   -0.3118   -1.9288 H   0  0  0  0  0  0  0  0  0  0  0  0
   -4.6737   -1.5766   -1.8023 H   0  0  0  0  0  0  0  0  0  0  0  0
    1.3043    2.4419    1.5349 H   0  0  0  0  0  0  0  0  0  0  0  0
    3.5364    2.9924    2.4203 H   0  0  0  0  0  0  0  0  0  0  0  0
    5.8798    2.7527    2.4224 H   0  0  0  0  0  0  0  0  0  0  0  0
    6.5402    2.6629    0.7837 H   0  0  0  0  0  0  0  0  0  0  0  0
    6.4974    1.2101    1.8247 H   0  0  0  0  0  0  0  0  0  0  0  0
  1  2  1  0
  2  3  1  0
  3  4  1  0
  4  5  2  0
  5  6  1  0
  6  7  2  0
  6  8  1  0
  8  9  1  0
  9 10  1  0
 10 11  1  0
 11 12  1  0
 12 13  1  0
 13 14  1  0
 14 15  2  0
 15 16  1  0
 16 17  2  0
 17 18  1  0
 15 19  1  0
  5 20  1  0
 20 21  2  0
 21 22  1  0
 22 23  1  0
 22  3  2  0
 19 11  1  0
 18 14  1  0
  1 24  1  0
  1 25  1  0
  1 26  1  0
  4 27  1  0
  8 28  1  0
  9 29  1  0
  9 30  1  0
 10 31  1  0
 10 32  1  0
 12 33  1  0
 12 34  1  0
 13 35  1  0
 13 36  1  0
 16 37  1  0
 17 38  1  0
 19 39  1  0
 19 40  1  0
 20 41  1  0
 21 42  1  0
 23 43  1  0
 23 44  1  0
 23 45  1  0
M  END
$$$$
OCNT-2315273
     RDKit          3D

 58 62  0  0  0  0  0  0  0  0999 V2000
    5.8309    3.2018    1.7509 C   0  0  0  0  0  0  0  0  0  0  0  0
    5.4742    2.0520    0.8555 C   0  0  0  0  0  0  0  0  0  0  0  0
    6.2375    0.8791    0.8648 C   0  0  0  0  0  0  0  0  0  0  0  0
    5.9297   -0.1731    0.0007 C   0  0  0  0  0  0  0  0  0  0  0  0
    4.8614   -0.0654   -0.8989 C   0  0  0  0  0  0  0  0  0  0  0  0
    4.5207   -1.2114   -1.8158 C   0  0  0  0  0  0  0  0  0  0  0  0
    3.9036   -2.3281   -1.1196 N   0  0  0  0  0  0  0  0  0  0  0  0
    3.8753   -3.5915   -1.6973 C   0  0  0  0  0  0  0  0  0  0  0  0
    4.5348   -3.9719   -2.6510 O   0  0  0  0  0  0  0  0  0  0  0  0
    2.8525   -4.4232   -0.9639 C   0  0  0  0  0  0  0  0  0  0  0  0
    2.5433   -3.5907    0.2774 C   0  0  0  0  0  0  0  0  0  0  0  0
    2.8170   -2.1594   -0.1715 C   0  0  0  0  0  0  0  0  0  0  0  0
    1.5321   -1.5192   -0.7494 C   0  0  0  0  0  0  0  0  0  0  0  0
    1.3457   -1.4062   -1.9574 O   0  0  0  0  0  0  0  0  0  0  0  0
    0.6411   -1.1453    0.2475 N   0  0  0  0  0  0  0  0  0  0  0  0
   -0.6699   -0.6529    0.0759 C   0  0  0  0  0  0  0  0  0  0  0  0
   -1.3125   -0.5143   -1.1434 C   0  0  0  0  0  0  0  0  0  0  0  0
   -2.6338   -0.0521   -1.1827 C   0  0  0  0  0  0  0  0  0  0  0  0
   -3.3085    0.2796   -0.0069 C   0  0  0  0  0  0  0  0  0  0  0  0
   -4.6482    0.6834   -0.0430 N   0  0  0  0  0  0  0  0  0  0  0  0
   -4.9732    1.8015   -0.9576 C   0  0  0  0  0  0  0  0  0  0  0  0
   -6.4971    1.8892   -1.1994 C   0  0  0  0  0  0  0  0  0  0  0  0
   -7.2292    1.8345    0.1070 C   0  0  0  0  0  0  0  0  0  0  0  0
   -6.6839    1.3217    1.2675 C   0  0  0  0  0  0  0  0  0  0  0  0
   -7.6172    1.3768    2.3462 C   0  0  0  0  0  0  0  0  0  0  0  0
   -8.8249    1.9173    1.9566 C   0  0  0  0  0  0  0  0  0  0  0  0
   -8.8326    2.3539    0.2991 S   0  0  0  0  0  0  0  0  0  0  0  0
   -5.2641    0.8144    1.2999 C   0  0  0  0  0  0  0  0  0  0  0  0
   -2.6893    0.1408    1.1846 N   0  0  0  0  0  0  0  0  0  0  0  0
   -1.4089   -0.3060    1.2012 C   0  0  0  0  0  0  0  0  0  0  0  0
    4.1026    1.1119   -0.9128 C   0  0  0  0  0  0  0  0  0  0  0  0
    4.4107    2.1635   -0.0469 C   0  0  0  0  0  0  0  0  0  0  0  0
    4.9289    3.7090    2.1089 H   0  0  0  0  0  0  0  0  0  0  0  0
    6.4518    3.9202    1.2082 H   0  0  0  0  0  0  0  0  0  0  0  0
    6.3815    2.8589    2.6332 H   0  0  0  0  0  0  0  0  0  0  0  0
    7.0808    0.7789    1.5443 H   0  0  0  0  0  0  0  0  0  0  0  0
    6.5305   -1.0799    0.0262 H   0  0  0  0  0  0  0  0  0  0  0  0
    3.8429   -0.8886   -2.6149 H   0  0  0  0  0  0  0  0  0  0  0  0
    5.4318   -1.5614   -2.3182 H   0  0  0  0  0  0  0  0  0  0  0  0
    3.2613   -5.4029   -0.7009 H   0  0  0  0  0  0  0  0  0  0  0  0
    1.9685   -4.5388   -1.5992 H   0  0  0  0  0  0  0  0  0  0  0  0
    3.2415   -3.8680    1.0772 H   0  0  0  0  0  0  0  0  0  0  0  0
    1.5278   -3.7655    0.6432 H   0  0  0  0  0  0  0  0  0  0  0  0
    3.1641   -1.5531    0.6727 H   0  0  0  0  0  0  0  0  0  0  0  0
    0.9667   -1.2137    1.2045 H   0  0  0  0  0  0  0  0  0  0  0  0
   -0.8358   -0.7741   -2.0825 H   0  0  0  0  0  0  0  0  0  0  0  0
   -3.1360    0.0003   -2.1424 H   0  0  0  0  0  0  0  0  0  0  0  0
   -4.4914    1.6945   -1.9360 H   0  0  0  0  0  0  0  0  0  0  0  0
   -4.6116    2.7412   -0.5203 H   0  0  0  0  0  0  0  0  0  0  0  0
   -6.8179    1.0416   -1.8191 H   0  0  0  0  0  0  0  0  0  0  0  0
   -6.7267    2.8108   -1.7457 H   0  0  0  0  0  0  0  0  0  0  0  0
   -7.4157    1.0385    3.3549 H   0  0  0  0  0  0  0  0  0  0  0  0
   -9.7055    2.0774    2.5623 H   0  0  0  0  0  0  0  0  0  0  0  0
   -4.6877    1.5176    1.9183 H   0  0  0  0  0  0  0  0  0  0  0  0
   -5.2648   -0.1642    1.7977 H   0  0  0  0  0  0  0  0  0  0  0  0
   -0.9909   -0.3839    2.2007 H   0  0  0  0  0  0  0  0  0  0  0  0
    3.2687    1.2194   -1.6047 H   0  0  0  0  0  0  0  0  0  0  0  0
    3.8175    3.0750   -0.0856 H   0  0  0  0  0  0  0  0  0  0  0  0
  1  2  1  0
  2  3  1  0
  3  4  2  0
  4  5  1  0
  5  6  1  0
  6  7  1  0
  7  8  1  0
  8  9  2  0
  8 10  1  0
 10 11  1  0
 11 12  1  0
 12 13  1  0
 13 14  2  0
 13 15  1  0
 15 16  1  0
 16 17  2  0
 17 18  1  0
 18 19  2  0
 19 20  1  0
 20 21  1  0
 21 22  1  0
 22 23  1  0
 23 24  2  0
 24 25  1  0
 25 26  2  0
 26 27  1  0
 24 28  1  0
 19 29  1  0
 29 30  2  0
  5 31  2  0
 31 32  1  0
 32  2  2  0
 12  7  1  0
 30 16  1  0
 28 20  1  0
 27 23  1  0
  1 33  1  0
  1 34  1  0
  1 35  1  0
  3 36  1  0
  4 37  1  0
  6 38  1  0
  6 39  1  0
 10 40  1  0
 10 41  1  0
 11 42  1  0
 11 43  1  0
 12 44  1  0
 15 45  1  0
 17 46  1  0
 18 47  1  0
 21 48  1  0
 21 49  1  0
 22 50  1  0
 22 51  1  0
 25 52  1  0
 26 53  1  0
 28 54  1  0
 28 55  1  0
 30 56  1  0
 31 57  1  0
 32 58  1  0
M  END
$$$$
OCNT-2315284
     RDKit          3D

 43 45  0  0  0  0  0  0  0  0999 V2000
   -3.9749    1.7634    0.0152 O   0  0  0  0  0  0  0  0  0  0  0  0
   -3.9223    0.7232   -0.9932 C   0  0  0  0  0  0  0  0  0  0  0  0
   -5.2411    0.5950   -1.7503 C   0  0  0  0  0  0  0  0  0  0  0  0
   -5.5700    1.7819   -2.3162 F   0  0  0  0  0  0  0  0  0  0  0  0
   -5.1815   -0.3248   -2.7359 F   0  0  0  0  0  0  0  0  0  0  0  0
   -6.2537    0.2478   -0.9255 F   0  0  0  0  0  0  0  0  0  0  0  0
   -2.7368    1.0270   -1.9115 C   0  0  0  0  0  0  0  0  0  0  0  0
   -1.5519    0.4979   -1.1074 C   0  0  0  0  0  0  0  0  0  0  0  0
   -2.0861   -0.7158   -0.4994 N   0  0  0  0  0  0  0  0  0  0  0  0
   -1.2967   -1.3858    0.4166 C   0  0  0  0  0  0  0  0  0  0  0  0
   -1.7605   -2.4875    1.1498 C   0  0  0  0  0  0  0  0  0  0  0  0
   -1.0163   -3.1894    2.0439 N   0  0  0  0  0  0  0  0  0  0  0  0
    0.2535   -2.7511    2.1768 C   0  0  0  0  0  0  0  0  0  0  0  0
    0.7463   -1.6758    1.4563 C   0  0  0  0  0  0  0  0  0  0  0  0
    2.0638   -1.3264    1.6678 O   0  0  0  0  0  0  0  0  0  0  0  0
    2.5197   -0.1909    0.9203 C   0  0  0  0  0  0  0  0  0  0  0  0
    2.9222   -0.6108   -0.5047 C   0  0  0  0  0  0  0  0  0  0  0  0
    4.0384    0.2436   -1.1101 C   0  0  0  0  0  0  0  0  0  0  0  0
    4.0579    1.6509   -0.5305 C   0  0  0  0  0  0  0  0  0  0  0  0
    4.2795    1.6368    0.9827 C   0  0  0  0  0  0  0  0  0  0  0  0
    3.7259    0.3863    1.6658 C   0  0  0  0  0  0  0  0  0  0  0  0
   -0.0118   -0.9892    0.5720 N   0  0  0  0  0  0  0  0  0  0  0  0
   -3.5433   -0.6174   -0.3346 C   0  0  0  0  0  0  0  0  0  0  0  0
   -4.3595    2.5596   -0.3983 H   0  0  0  0  0  0  0  0  0  0  0  0
   -2.6208    2.0923   -2.1332 H   0  0  0  0  0  0  0  0  0  0  0  0
   -2.8149    0.4749   -2.8559 H   0  0  0  0  0  0  0  0  0  0  0  0
   -1.2550    1.2286   -0.3442 H   0  0  0  0  0  0  0  0  0  0  0  0
   -0.6975    0.2920   -1.7611 H   0  0  0  0  0  0  0  0  0  0  0  0
   -2.7719   -2.8581    1.0264 H   0  0  0  0  0  0  0  0  0  0  0  0
    0.8758   -3.2907    2.8805 H   0  0  0  0  0  0  0  0  0  0  0  0
    1.7541    0.5971    0.8930 H   0  0  0  0  0  0  0  0  0  0  0  0
    3.2225   -1.6659   -0.5296 H   0  0  0  0  0  0  0  0  0  0  0  0
    2.0372   -0.5465   -1.1502 H   0  0  0  0  0  0  0  0  0  0  0  0
    3.9225    0.2825   -2.1992 H   0  0  0  0  0  0  0  0  0  0  0  0
    5.0059   -0.2369   -0.9169 H   0  0  0  0  0  0  0  0  0  0  0  0
    3.1040    2.1450   -0.7543 H   0  0  0  0  0  0  0  0  0  0  0  0
    4.8394    2.2502   -1.0112 H   0  0  0  0  0  0  0  0  0  0  0  0
    5.3513    1.7117    1.2024 H   0  0  0  0  0  0  0  0  0  0  0  0
    3.8158    2.5322    1.4140 H   0  0  0  0  0  0  0  0  0  0  0  0
    3.4616    0.6133    2.7059 H   0  0  0  0  0  0  0  0  0  0  0  0
    4.5115   -0.3789    1.7294 H   0  0  0  0  0  0  0  0  0  0  0  0
   -4.0056   -1.4726   -0.8397 H   0  0  0  0  0  0  0  0  0  0  0  0
   -3.8363   -0.6185    0.7220 H   0  0  0  0  0  0  0  0  0  0  0  0
  1  2  1  0
  2  3  1  0
  3  4  1  0
  3  5  1  0
  3  6  1  0
  2  7  1  0
  7  8  1  0
  8  9  1  0
  9 10  1  0
 10 11  2  0
 11 12  1  0
 12 13  2  0
 13 14  1  0
 14 15  1  0
 15 16  1  0
 16 17  1  0
 17 18  1  0
 18 19  1  0
 19 20  1  0
 20 21  1  0
 14 22  2  0
  9 23  1  0
 23  2  1  0
 22 10  1  0
 21 16  1  0
  1 24  1  0
  7 25  1  0
  7 26  1  0
  8 27  1  0
  8 28  1  0
 11 29  1  0
 13 30  1  0
 16 31  1  0
 17 32  1  0
 17 33  1  0
 18 34  1  0
 18 35  1  0
 19 36  1  0
 19 37  1  0
 20 38  1  0
 20 39  1  0
 21 40  1  0
 21 41  1  0
 23 42  1  0
 23 43  1  0
M  END
$$$$
OCNT-2315285
     RDKit          3D

  0  0  0  0  0  0  0  0  0  0999 V3000
M  V30 BEGIN CTAB
M  V30 COUNTS 37 39 0 0 0
M  V30 BEGIN ATOM
M  V30 1 C -3.553937 -1.652374 -1.876942 0
M  V30 2 C -3.747182 -1.972435 -0.589964 0
M  V30 3 C -3.190575 -1.281734 0.622427 0 CFG=2
M  V30 4 O -4.269667 -1.076078 1.556852 0
M  V30 5 C -4.175845 0.260323 2.068916 0
M  V30 6 C -2.772115 0.737918 1.776362 0
M  V30 7 C -2.506472 0.085130 0.434586 0 CFG=1
M  V30 8 N -1.089593 0.005980 0.117525 0
M  V30 9 C -0.399588 1.109725 -0.351303 0
M  V30 10 O -0.973586 2.173539 -0.570846 0
M  V30 11 C 1.030163 0.913766 -0.518930 0
M  V30 12 C 1.825700 -0.199287 -0.788085 0
M  V30 13 C 1.387817 -1.596747 -1.041667 0
M  V30 14 C 3.177357 0.274692 -0.806131 0
M  V30 15 C 4.445558 -0.305798 -1.005345 0
M  V30 16 C 5.575666 0.522511 -0.955328 0
M  V30 17 Br 7.288479 -0.240293 -1.217856 0
M  V30 18 C 5.466468 1.894183 -0.717957 0
M  V30 19 C 4.215016 2.487078 -0.521455 0
M  V30 20 C 3.109675 1.640666 -0.574552 0
M  V30 21 O 1.821281 2.026534 -0.410981 0
M  V30 22 H -2.939395 -0.813653 -2.188033 0
M  V30 23 H -4.022471 -2.236533 -2.664160 0
M  V30 24 H -4.377437 -2.833054 -0.369244 0
M  V30 25 H -2.498298 -1.980300 1.110557 0
M  V30 26 H -4.921273 0.872688 1.549920 0
M  V30 27 H -4.406147 0.261156 3.137838 0
M  V30 28 H -2.077157 0.355565 2.534464 0
M  V30 29 H -2.688779 1.828278 1.761091 0
M  V30 30 H -3.011085 0.674355 -0.342273 0
M  V30 31 H -0.548728 -0.740148 0.531212 0
M  V30 32 H 1.224642 -2.122233 -0.095621 0
M  V30 33 H 2.139938 -2.151591 -1.611502 0
M  V30 34 H 0.459684 -1.620159 -1.621505 0
M  V30 35 H 4.543528 -1.370171 -1.193772 0
M  V30 36 H 6.356100 2.519387 -0.685011 0
M  V30 37 H 4.102262 3.549114 -0.338642 0
M  V30 END ATOM
M  V30 BEGIN BOND
M  V30 1 2 1 2
M  V30 2 1 2 3
M  V30 3 1 3 4
M  V30 4 1 4 5
M  V30 5 1 5 6
M  V30 6 1 6 7
M  V30 7 1 7 8
M  V30 8 1 8 9
M  V30 9 2 9 10
M  V30 10 1 9 11
M  V30 11 2 11 12
M  V30 12 1 12 13
M  V30 13 1 12 14
M  V30 14 2 14 15
M  V30 15 1 15 16
M  V30 16 1 16 17
M  V30 17 2 16 18
M  V30 18 1 18 19
M  V30 19 2 19 20
M  V30 20 1 20 21
M  V30 21 1 7 3
M  V30 22 1 21 11
M  V30 23 1 20 14
M  V30 24 1 1 22
M  V30 25 1 1 23
M  V30 26 1 2 24
M  V30 27 1 3 25 CFG=1
M  V30 28 1 5 26
M  V30 29 1 5 27
M  V30 30 1 6 28
M  V30 31 1 6 29
M  V30 32 1 7 30 CFG=3
M  V30 33 1 8 31
M  V30 34 1 13 32
M  V30 35 1 13 33
M  V30 36 1 13 34
M  V30 37 1 15 35
M  V30 38 1 18 36
M  V30 39 1 19 37
M  V30 END BOND
M  V30 BEGIN COLLECTION
M  V30 MDLV30/STERAC1 ATOMS=(2 3 7)
M  V30 END COLLECTION
M  V30 END CTAB
M  END
>  <_CXSMILES_Data>  (958) 
|&1:2,6|

$$$$
OCNT-2315318
     RDKit          3D

 45 46  0  0  0  0  0  0  0  0999 V2000
   -4.0305   -1.4347   -2.3029 C   0  0  0  0  0  0  0  0  0  0  0  0
   -3.2578   -0.4733   -1.5955 O   0  0  0  0  0  0  0  0  0  0  0  0
   -4.0412    0.3875   -0.7617 C   0  0  0  0  0  0  0  0  0  0  0  0
   -4.4342   -0.2986    0.5512 C   0  0  0  0  0  0  0  0  0  0  0  0
   -3.2259   -0.5836    1.4405 C   0  0  0  0  0  0  0  0  0  0  0  0
   -2.4206    0.6848    1.7166 C   0  0  0  0  0  0  0  0  0  0  0  0
   -1.9984    1.4275    0.4369 C   0  0  0  0  0  0  0  0  0  0  0  0
   -0.8484    0.7138   -0.2996 C   0  0  0  0  0  0  0  0  0  0  0  0
    0.5041    0.8615    0.3884 C   0  0  0  0  0  0  0  0  0  0  0  0
    0.6891    1.6328    1.3211 O   0  0  0  0  0  0  0  0  0  0  0  0
    1.4586    0.0577   -0.2135 N   0  0  0  0  0  0  0  0  0  0  0  0
    2.7900   -0.0481    0.1625 C   0  0  0  0  0  0  0  0  0  0  0  0
    3.8173   -0.5150   -0.6449 C   0  0  0  0  0  0  0  0  0  0  0  0
    3.7260   -0.9907   -2.0503 C   0  0  0  0  0  0  0  0  0  0  0  0
    5.0032   -0.3951    0.1419 C   0  0  0  0  0  0  0  0  0  0  0  0
    6.4081   -0.7311   -0.2909 C   0  0  0  0  0  0  0  0  0  0  0  0
    6.7416   -0.0912   -1.4471 F   0  0  0  0  0  0  0  0  0  0  0  0
    6.5463   -2.0628   -0.5439 F   0  0  0  0  0  0  0  0  0  0  0  0
    7.3630   -0.4069    0.6200 F   0  0  0  0  0  0  0  0  0  0  0  0
    4.7153    0.0644    1.3707 N   0  0  0  0  0  0  0  0  0  0  0  0
    3.3737    0.2272    1.3800 N   0  0  0  0  0  0  0  0  0  0  0  0
    2.7625    0.4902    2.6629 C   0  0  0  0  0  0  0  0  0  0  0  0
   -3.2196    1.6529   -0.4788 C   0  0  0  0  0  0  0  0  0  0  0  0
   -4.5069   -2.1397   -1.6173 H   0  0  0  0  0  0  0  0  0  0  0  0
   -3.3573   -1.9965   -2.9563 H   0  0  0  0  0  0  0  0  0  0  0  0
   -4.7839   -0.9423   -2.9250 H   0  0  0  0  0  0  0  0  0  0  0  0
   -4.9455    0.6850   -1.3074 H   0  0  0  0  0  0  0  0  0  0  0  0
   -4.9573   -1.2408    0.3593 H   0  0  0  0  0  0  0  0  0  0  0  0
   -5.1340    0.3470    1.0968 H   0  0  0  0  0  0  0  0  0  0  0  0
   -2.5892   -1.3433    0.9735 H   0  0  0  0  0  0  0  0  0  0  0  0
   -3.5689   -1.0075    2.3916 H   0  0  0  0  0  0  0  0  0  0  0  0
   -1.5466    0.4352    2.3285 H   0  0  0  0  0  0  0  0  0  0  0  0
   -3.0364    1.3613    2.3239 H   0  0  0  0  0  0  0  0  0  0  0  0
   -1.6391    2.4219    0.7343 H   0  0  0  0  0  0  0  0  0  0  0  0
   -1.0529   -0.3555   -0.4139 H   0  0  0  0  0  0  0  0  0  0  0  0
   -0.7341    1.1431   -1.3031 H   0  0  0  0  0  0  0  0  0  0  0  0
    1.2175   -0.3196   -1.1230 H   0  0  0  0  0  0  0  0  0  0  0  0
    2.9052   -1.7064   -2.1634 H   0  0  0  0  0  0  0  0  0  0  0  0
    4.6447   -1.4910   -2.3703 H   0  0  0  0  0  0  0  0  0  0  0  0
    3.5453   -0.1471   -2.7241 H   0  0  0  0  0  0  0  0  0  0  0  0
    1.8106   -0.0398    2.7313 H   0  0  0  0  0  0  0  0  0  0  0  0
    2.6506    1.5699    2.7793 H   0  0  0  0  0  0  0  0  0  0  0  0
    3.4184    0.1104    3.4527 H   0  0  0  0  0  0  0  0  0  0  0  0
   -3.8762    2.3904    0.0016 H   0  0  0  0  0  0  0  0  0  0  0  0
   -2.8862    2.0965   -1.4252 H   0  0  0  0  0  0  0  0  0  0  0  0
  1  2  1  0
  2  3  1  0
  3  4  1  0
  4  5  1  0
  5  6  1  0
  6  7  1  0
  7  8  1  0
  8  9  1  0
  9 10  2  0
  9 11  1  0
 11 12  1  0
 12 13  2  0
 13 14  1  0
 13 15  1  0
 15 16  1  0
 16 17  1  0
 16 18  1  0
 16 19  1  0
 15 20  2  0
 20 21  1  0
 21 22  1  0
  7 23  1  0
 23  3  1  0
 21 12  1  0
  1 24  1  0
  1 25  1  0
  1 26  1  0
  3 27  1  0
  4 28  1  0
  4 29  1  0
  5 30  1  0
  5 31  1  0
  6 32  1  0
  6 33  1  0
  7 34  1  0
  8 35  1  0
  8 36  1  0
 11 37  1  0
 14 38  1  0
 14 39  1  0
 14 40  1  0
 22 41  1  0
 22 42  1  0
 22 43  1  0
 23 44  1  0
 23 45  1  0
M  END
$$$$
OCNT-2315321
     RDKit          3D

 40 41  0  0  0  0  0  0  0  0999 V2000
   -2.8028   -1.7724   -1.4536 C   0  0  0  0  0  0  0  0  0  0  0  0
   -2.1455   -1.0045   -0.3063 C   0  0  1  0  0  0  0  0  0  0  0  0
   -0.7480   -0.5210   -0.7649 C   0  0  0  0  0  0  0  0  0  0  0  0
   -0.0983    0.3786    0.1933 N   0  0  0  0  0  0  0  0  0  0  0  0
    1.2851    0.5014    0.3636 C   0  0  0  0  0  0  0  0  0  0  0  0
    1.7366    1.2848    1.2084 O   0  0  0  0  0  0  0  0  0  0  0  0
    2.2180   -0.3792   -0.5358 C   0  0  0  0  0  0  0  0  0  0  0  0
    1.8120   -0.2994   -1.8486 F   0  0  0  0  0  0  0  0  0  0  0  0
    2.0327   -1.7059   -0.2292 F   0  0  0  0  0  0  0  0  0  0  0  0
    3.6569    0.0321   -0.3929 C   0  0  0  0  0  0  0  0  0  0  0  0
    4.1697    1.0914   -1.1384 C   0  0  0  0  0  0  0  0  0  0  0  0
    3.3805    1.7457   -2.0015 F   0  0  0  0  0  0  0  0  0  0  0  0
    5.4948    1.5035   -1.0028 C   0  0  0  0  0  0  0  0  0  0  0  0
    6.3316    0.8559   -0.0960 C   0  0  0  0  0  0  0  0  0  0  0  0
    5.8303   -0.1941    0.6713 C   0  0  0  0  0  0  0  0  0  0  0  0
    4.5019   -0.5916    0.5212 C   0  0  0  0  0  0  0  0  0  0  0  0
    4.0454   -1.5916    1.2867 F   0  0  0  0  0  0  0  0  0  0  0  0
   -0.9825    1.2535    0.9632 C   0  0  0  0  0  0  0  0  0  0  0  0
   -2.3445    1.4393    0.2864 C   0  0  0  0  0  0  0  0  0  0  0  0
   -3.0557    0.1324    0.1014 N   0  0  0  0  0  0  0  0  0  0  0  0
   -4.1722   -0.2563    1.3391 S   0  0  0  0  0  0  0  0  0  0  0  0
   -5.5384    0.8048    0.9154 C   0  0  0  0  0  0  0  0  0  0  0  0
   -3.6103    0.1856    2.5964 O   0  0  0  0  0  0  0  0  0  0  0  0
   -4.6115   -1.6215    1.1513 O   0  0  0  0  0  0  0  0  0  0  0  0
   -3.7752   -2.1827   -1.1681 H   0  0  0  0  0  0  0  0  0  0  0  0
   -2.1717   -2.6086   -1.7729 H   0  0  0  0  0  0  0  0  0  0  0  0
   -2.9678   -1.1210   -2.3193 H   0  0  0  0  0  0  0  0  0  0  0  0
   -1.9973   -1.6687    0.5547 H   0  0  0  0  0  0  0  0  0  0  0  0
   -0.1161   -1.3912   -0.9578 H   0  0  0  0  0  0  0  0  0  0  0  0
   -0.8267    0.0393   -1.7052 H   0  0  0  0  0  0  0  0  0  0  0  0
    5.8621    2.3325   -1.6009 H   0  0  0  0  0  0  0  0  0  0  0  0
    7.3648    1.1736    0.0196 H   0  0  0  0  0  0  0  0  0  0  0  0
    6.4623   -0.7037    1.3931 H   0  0  0  0  0  0  0  0  0  0  0  0
   -0.5051    2.2303    1.0978 H   0  0  0  0  0  0  0  0  0  0  0  0
   -1.0930    0.7994    1.9539 H   0  0  0  0  0  0  0  0  0  0  0  0
   -2.9543    2.1410    0.8637 H   0  0  0  0  0  0  0  0  0  0  0  0
   -2.2200    1.8900   -0.7061 H   0  0  0  0  0  0  0  0  0  0  0  0
   -5.8651    0.5700   -0.0994 H   0  0  0  0  0  0  0  0  0  0  0  0
   -6.3487    0.6020    1.6195 H   0  0  0  0  0  0  0  0  0  0  0  0
   -5.2342    1.8485    0.9993 H   0  0  0  0  0  0  0  0  0  0  0  0
  1  2  1  0
  2  3  1  0
  3  4  1  0
  4  5  1  0
  5  6  2  0
  5  7  1  0
  7  8  1  0
  7  9  1  0
  7 10  1  0
 10 11  2  0
 11 12  1  0
 11 13  1  0
 13 14  2  0
 14 15  1  0
 15 16  2  0
 16 17  1  0
  4 18  1  0
 18 19  1  0
 19 20  1  0
 20 21  1  0
 21 22  1  0
 21 23  2  0
 21 24  2  0
 20  2  1  0
 16 10  1  0
  1 25  1  0
  1 26  1  0
  1 27  1  0
  2 28  1  1
  3 29  1  0
  3 30  1  0
 13 31  1  0
 14 32  1  0
 15 33  1  0
 18 34  1  0
 18 35  1  0
 19 36  1  0
 19 37  1  0
 22 38  1  0
 22 39  1  0
 22 40  1  0
M  END
$$$$
OCNT-2315324
     RDKit          3D

 52 54  0  0  0  0  0  0  0  0999 V2000
    3.9665    1.7664    4.2797 C   0  0  0  0  0  0  0  0  0  0  0  0
    4.2325    1.7551    2.8829 O   0  0  0  0  0  0  0  0  0  0  0  0
    3.4958    0.8915    2.1207 C   0  0  0  0  0  0  0  0  0  0  0  0
    2.4858    0.0481    2.5789 C   0  0  0  0  0  0  0  0  0  0  0  0
    1.8073   -0.7877    1.6840 C   0  0  0  0  0  0  0  0  0  0  0  0
    2.1313   -0.8024    0.3180 C   0  0  0  0  0  0  0  0  0  0  0  0
    1.3519   -1.7018   -0.6260 C   0  0  0  0  0  0  0  0  0  0  0  0
    2.2193   -2.5094   -1.6073 C   0  0  0  0  0  0  0  0  0  0  0  0
    3.1344   -3.5014   -0.9001 C   0  0  0  0  0  0  0  0  0  0  0  0
    3.8634   -4.2518   -1.8657 O   0  0  0  0  0  0  0  0  0  0  0  0
    0.3805   -0.8890   -1.3395 N   0  0  0  0  0  0  0  0  0  0  0  0
   -0.7770   -1.4222   -1.8330 C   0  0  0  0  0  0  0  0  0  0  0  0
   -1.1103   -2.5904   -1.6902 O   0  0  0  0  0  0  0  0  0  0  0  0
   -1.5263   -0.4750   -2.4800 N   0  0  0  0  0  0  0  0  0  0  0  0
   -2.8935   -0.7692   -2.8773 C   0  0  0  0  0  0  0  0  0  0  0  0
   -3.8842   -0.6996   -1.7063 C   0  0  0  0  0  0  0  0  0  0  0  0
   -4.0235    0.6887   -1.1516 C   0  0  0  0  0  0  0  0  0  0  0  0
   -4.9124    1.6550   -1.5822 C   0  0  0  0  0  0  0  0  0  0  0  0
   -4.7099    2.7880   -0.8415 N   0  0  0  0  0  0  0  0  0  0  0  0
   -3.6953    2.5896    0.0648 C   0  0  0  0  0  0  0  0  0  0  0  0
   -3.1408    3.4678    1.0041 C   0  0  0  0  0  0  0  0  0  0  0  0
   -2.1022    2.9875    1.8072 C   0  0  0  0  0  0  0  0  0  0  0  0
   -1.6453    1.6786    1.6811 C   0  0  0  0  0  0  0  0  0  0  0  0
   -2.2173    0.8121    0.7429 C   0  0  0  0  0  0  0  0  0  0  0  0
   -3.2568    1.2745   -0.0912 C   0  0  0  0  0  0  0  0  0  0  0  0
    3.1397    0.0596   -0.1341 C   0  0  0  0  0  0  0  0  0  0  0  0
    3.8153    0.8929    0.7620 C   0  0  0  0  0  0  0  0  0  0  0  0
    4.6442    2.4898    4.7432 H   0  0  0  0  0  0  0  0  0  0  0  0
    2.9413    2.0931    4.4830 H   0  0  0  0  0  0  0  0  0  0  0  0
    4.1667    0.7877    4.7284 H   0  0  0  0  0  0  0  0  0  0  0  0
    2.1966    0.0166    3.6239 H   0  0  0  0  0  0  0  0  0  0  0  0
    1.0138   -1.4287    2.0648 H   0  0  0  0  0  0  0  0  0  0  0  0
    0.7857   -2.4278   -0.0265 H   0  0  0  0  0  0  0  0  0  0  0  0
    2.8147   -1.8538   -2.2549 H   0  0  0  0  0  0  0  0  0  0  0  0
    1.5747   -3.0668   -2.3001 H   0  0  0  0  0  0  0  0  0  0  0  0
    3.8621   -2.9917   -0.2624 H   0  0  0  0  0  0  0  0  0  0  0  0
    2.5637   -4.2002   -0.2799 H   0  0  0  0  0  0  0  0  0  0  0  0
    3.2176   -4.7567   -2.3902 H   0  0  0  0  0  0  0  0  0  0  0  0
    0.7019   -0.0289   -1.7568 H   0  0  0  0  0  0  0  0  0  0  0  0
   -1.3651    0.4745   -2.1717 H   0  0  0  0  0  0  0  0  0  0  0  0
   -3.1604   -0.0461   -3.6557 H   0  0  0  0  0  0  0  0  0  0  0  0
   -2.9203   -1.7711   -3.3204 H   0  0  0  0  0  0  0  0  0  0  0  0
   -3.5820   -1.3869   -0.9072 H   0  0  0  0  0  0  0  0  0  0  0  0
   -4.8666   -1.0411   -2.0561 H   0  0  0  0  0  0  0  0  0  0  0  0
   -5.6701    1.6321   -2.3544 H   0  0  0  0  0  0  0  0  0  0  0  0
   -5.2237    3.6520   -0.9446 H   0  0  0  0  0  0  0  0  0  0  0  0
   -3.4975    4.4871    1.1087 H   0  0  0  0  0  0  0  0  0  0  0  0
   -1.6466    3.6462    2.5430 H   0  0  0  0  0  0  0  0  0  0  0  0
   -0.8366    1.3235    2.3148 H   0  0  0  0  0  0  0  0  0  0  0  0
   -1.8557   -0.2088    0.6603 H   0  0  0  0  0  0  0  0  0  0  0  0
    3.4132    0.0983   -1.1856 H   0  0  0  0  0  0  0  0  0  0  0  0
    4.5992    1.5521    0.3961 H   0  0  0  0  0  0  0  0  0  0  0  0
  1  2  1  0
  2  3  1  0
  3  4  1  0
  4  5  2  0
  5  6  1  0
  6  7  1  0
  7  8  1  0
  8  9  1  0
  9 10  1  0
  7 11  1  0
 11 12  1  0
 12 13  2  0
 12 14  1  0
 14 15  1  0
 15 16  1  0
 16 17  1  0
 17 18  2  0
 18 19  1  0
 19 20  1  0
 20 21  2  0
 21 22  1  0
 22 23  2  0
 23 24  1  0
 24 25  2  0
  6 26  2  0
 26 27  1  0
 27  3  2  0
 25 17  1  0
 25 20  1  0
  1 28  1  0
  1 29  1  0
  1 30  1  0
  4 31  1  0
  5 32  1  0
  7 33  1  0
  8 34  1  0
  8 35  1  0
  9 36  1  0
  9 37  1  0
 10 38  1  0
 11 39  1  0
 14 40  1  0
 15 41  1  0
 15 42  1  0
 16 43  1  0
 16 44  1  0
 18 45  1  0
 19 46  1  0
 21 47  1  0
 22 48  1  0
 23 49  1  0
 24 50  1  0
 26 51  1  0
 27 52  1  0
M  END
$$$$
OCNT-2315347
     RDKit          3D

  0  0  0  0  0  0  0  0  0  0999 V3000
M  V30 BEGIN CTAB
M  V30 COUNTS 48 51 0 0 0
M  V30 BEGIN ATOM
M  V30 1 O -0.261060 -2.794941 1.099861 0
M  V30 2 C -0.245541 -1.486581 0.524296 0 CFG=1
M  V30 3 C -1.214913 -1.452559 -0.660783 0
M  V30 4 C -2.482984 -0.786674 -0.115127 0
M  V30 5 C -3.371839 -0.242940 -1.231430 0
M  V30 6 N -4.594548 0.359751 -0.734930 0
M  V30 7 C -5.770145 -0.279475 -0.464204 0
M  V30 8 C -6.638105 0.692927 -0.026415 0
M  V30 9 C -5.891819 1.884431 -0.073920 0
M  V30 10 N -4.644418 1.686422 -0.507425 0
M  V30 11 C -1.911402 0.289444 0.812435 0
M  V30 12 C -0.790736 -0.455086 1.548635 0 CFG=2
M  V30 13 N 0.209933 0.346544 2.270019 0
M  V30 14 C 0.697558 1.563433 1.617679 0
M  V30 15 C 1.575061 1.321625 0.413781 0
M  V30 16 C 1.208137 1.807399 -0.848155 0
M  V30 17 C 2.022689 1.580816 -1.956807 0
M  V30 18 C 3.215086 0.869453 -1.816939 0
M  V30 19 C 3.605329 0.381519 -0.561382 0
M  V30 20 N 4.822545 -0.346211 -0.440496 0
M  V30 21 C 5.375862 -0.902194 0.695659 0
M  V30 22 C 6.554296 -1.504127 0.323645 0
M  V30 23 C 6.645151 -1.272837 -1.054511 0
M  V30 24 N 5.608886 -0.580551 -1.526706 0
M  V30 25 C 2.785031 0.616239 0.550895 0
M  V30 26 H 0.279658 -3.361830 0.523555 0
M  V30 27 H 0.775785 -1.285696 0.197916 0
M  V30 28 H -0.786008 -0.836661 -1.460921 0
M  V30 29 H -1.428436 -2.445541 -1.069354 0
M  V30 30 H -3.044904 -1.515916 0.484642 0
M  V30 31 H -2.850179 0.513130 -1.830580 0
M  V30 32 H -3.666487 -1.050392 -1.912224 0
M  V30 33 H -5.886409 -1.345460 -0.599485 0
M  V30 34 H -7.664992 0.561824 0.282438 0
M  V30 35 H -6.204517 2.886877 0.188167 0
M  V30 36 H -2.659287 0.679610 1.510386 0
M  V30 37 H -1.540608 1.123971 0.210715 0
M  V30 38 H -1.279960 -1.043878 2.339040 0
M  V30 39 H -0.206237 0.627740 3.158352 0
M  V30 40 H 1.312570 2.105824 2.348320 0
M  V30 41 H -0.123922 2.250919 1.387451 0
M  V30 42 H 0.284407 2.367740 -0.976474 0
M  V30 43 H 1.731864 1.961041 -2.932968 0
M  V30 44 H 3.834031 0.705376 -2.697484 0
M  V30 45 H 4.900580 -0.828950 1.661423 0
M  V30 46 H 7.247067 -2.034121 0.961120 0
M  V30 47 H 7.424910 -1.580127 -1.739798 0
M  V30 48 H 3.043021 0.248695 1.540509 0
M  V30 END ATOM
M  V30 BEGIN BOND
M  V30 1 1 1 2
M  V30 2 1 2 3
M  V30 3 1 3 4
M  V30 4 1 4 5
M  V30 5 1 5 6
M  V30 6 1 6 7
M  V30 7 2 7 8
M  V30 8 1 8 9
M  V30 9 2 9 10
M  V30 10 1 4 11
M  V30 11 1 11 12
M  V30 12 1 12 13
M  V30 13 1 13 14
M  V30 14 1 14 15
M  V30 15 2 15 16
M  V30 16 1 16 17
M  V30 17 2 17 18
M  V30 18 1 18 19
M  V30 19 1 19 20
M  V30 20 1 20 21
M  V30 21 2 21 22
M  V30 22 1 22 23
M  V30 23 2 23 24
M  V30 24 2 19 25
M  V30 25 1 12 2
M  V30 26 1 25 15
M  V30 27 1 10 6
M  V30 28 1 24 20
M  V30 29 1 1 26
M  V30 30 1 2 27 CFG=3
M  V30 31 1 3 28
M  V30 32 1 3 29
M  V30 33 1 4 30
M  V30 34 1 5 31
M  V30 35 1 5 32
M  V30 36 1 7 33
M  V30 37 1 8 34
M  V30 38 1 9 35
M  V30 39 1 11 36
M  V30 40 1 11 37
M  V30 41 1 12 38 CFG=1
M  V30 42 1 13 39
M  V30 43 1 14 40
M  V30 44 1 14 41
M  V30 45 1 16 42
M  V30 46 1 17 43
M  V30 47 1 18 44
M  V30 48 1 21 45
M  V30 49 1 22 46
M  V30 50 1 23 47
M  V30 51 1 25 48
M  V30 END BOND
M  V30 BEGIN COLLECTION
M  V30 MDLV30/STERAC1 ATOMS=(2 2 12)
M  V30 END COLLECTION
M  V30 END CTAB
M  END
>  <_CXSMILES_Data>  (962) 
|&1:1,11|

$$$$
OCNT-2315349
     RDKit          3D

 45 48  0  0  0  0  0  0  0  0999 V2000
   -1.7800    2.6576    0.6027 C   0  0  0  0  0  0  0  0  0  0  0  0
   -1.7192    1.5745   -0.4809 C   0  0  0  0  0  0  0  0  0  0  0  0
   -2.3527    0.3476   -0.0171 N   0  0  0  0  0  0  0  0  0  0  0  0
   -3.7347    0.3009    0.0882 C   0  0  0  0  0  0  0  0  0  0  0  0
   -4.5075    1.1863   -0.5879 N   0  0  0  0  0  0  0  0  0  0  0  0
   -5.8480    1.1077   -0.4673 C   0  0  0  0  0  0  0  0  0  0  0  0
   -6.5680    0.2415    0.2644 N   0  0  0  0  0  0  0  0  0  0  0  0
   -5.7710   -0.6195    0.9117 C   0  0  0  0  0  0  0  0  0  0  0  0
   -4.3858   -0.6631    0.8804 C   0  0  0  0  0  0  0  0  0  0  0  0
   -3.9957   -1.7498    1.7167 C   0  0  0  0  0  0  0  0  0  0  0  0
   -5.1430   -2.3213    2.2277 C   0  0  0  0  0  0  0  0  0  0  0  0
   -6.2135   -1.6235    1.7287 N   0  0  0  0  0  0  0  0  0  0  0  0
   -0.3021    1.2129   -0.9145 C   0  0  0  0  0  0  0  0  0  0  0  0
   -0.1040    0.6901   -2.2026 C   0  0  0  0  0  0  0  0  0  0  0  0
    1.1710    0.3227   -2.6401 C   0  0  0  0  0  0  0  0  0  0  0  0
    2.2782    0.4654   -1.8040 C   0  0  0  0  0  0  0  0  0  0  0  0
    3.4637    0.0599   -2.3513 O   0  0  0  0  0  0  0  0  0  0  0  0
    4.6769    0.4380   -1.6953 C   0  0  0  0  0  0  0  0  0  0  0  0
    5.1132   -0.5391   -0.6357 C   0  0  0  0  0  0  0  0  0  0  0  0
    4.7736   -1.8944   -0.6722 C   0  0  0  0  0  0  0  0  0  0  0  0
    5.2327   -2.7506    0.3244 C   0  0  0  0  0  0  0  0  0  0  0  0
    6.0312   -2.2237    1.3250 C   0  0  0  0  0  0  0  0  0  0  0  0
    6.3950   -0.9251    1.3883 N   0  0  0  0  0  0  0  0  0  0  0  0
    5.9344   -0.1179    0.4061 C   0  0  0  0  0  0  0  0  0  0  0  0
    2.0926    0.9571   -0.5136 C   0  0  0  0  0  0  0  0  0  0  0  0
    0.8139    1.3246   -0.0721 C   0  0  0  0  0  0  0  0  0  0  0  0
   -2.8120    2.9819    0.7756 H   0  0  0  0  0  0  0  0  0  0  0  0
   -1.2021    3.5411    0.3101 H   0  0  0  0  0  0  0  0  0  0  0  0
   -1.3965    2.2987    1.5645 H   0  0  0  0  0  0  0  0  0  0  0  0
   -2.2302    1.9681   -1.3703 H   0  0  0  0  0  0  0  0  0  0  0  0
   -1.8605   -0.1466    0.7149 H   0  0  0  0  0  0  0  0  0  0  0  0
   -6.4162    1.8396   -1.0332 H   0  0  0  0  0  0  0  0  0  0  0  0
   -2.9850   -2.0799    1.9172 H   0  0  0  0  0  0  0  0  0  0  0  0
   -5.2900   -3.1608    2.8943 H   0  0  0  0  0  0  0  0  0  0  0  0
   -7.1890   -1.8051    1.9155 H   0  0  0  0  0  0  0  0  0  0  0  0
   -0.9530    0.5556   -2.8710 H   0  0  0  0  0  0  0  0  0  0  0  0
    1.2979   -0.0806   -3.6417 H   0  0  0  0  0  0  0  0  0  0  0  0
    5.4545    0.4513   -2.4687 H   0  0  0  0  0  0  0  0  0  0  0  0
    4.6128    1.4637   -1.3103 H   0  0  0  0  0  0  0  0  0  0  0  0
    4.1474   -2.2861   -1.4708 H   0  0  0  0  0  0  0  0  0  0  0  0
    4.9740   -3.8034    0.3185 H   0  0  0  0  0  0  0  0  0  0  0  0
    6.4134   -2.8515    2.1246 H   0  0  0  0  0  0  0  0  0  0  0  0
    6.2581    0.9167    0.4880 H   0  0  0  0  0  0  0  0  0  0  0  0
    2.9141    1.0497    0.1887 H   0  0  0  0  0  0  0  0  0  0  0  0
    0.7109    1.6891    0.9467 H   0  0  0  0  0  0  0  0  0  0  0  0
  1  2  1  0
  2  3  1  0
  3  4  1  0
  4  5  1  0
  5  6  2  0
  6  7  1  0
  7  8  2  0
  8  9  1  0
  9 10  1  0
 10 11  2  0
 11 12  1  0
  2 13  1  0
 13 14  1  0
 14 15  2  0
 15 16  1  0
 16 17  1  0
 17 18  1  0
 18 19  1  0
 19 20  1  0
 20 21  2  0
 21 22  1  0
 22 23  2  0
 23 24  1  0
 16 25  2  0
 25 26  1  0
  9  4  2  0
 26 13  2  0
 12  8  1  0
 24 19  2  0
  1 27  1  0
  1 28  1  0
  1 29  1  0
  2 30  1  0
  3 31  1  0
  6 32  1  0
 10 33  1  0
 11 34  1  0
 12 35  1  0
 14 36  1  0
 15 37  1  0
 18 38  1  0
 18 39  1  0
 20 40  1  0
 21 41  1  0
 22 42  1  0
 24 43  1  0
 25 44  1  0
 26 45  1  0
M  END
$$$$
OCNT-2315357
     RDKit          3D

 35 37  0  0  0  0  0  0  0  0999 V2000
    2.3040   -0.7097   -0.7541 O   0  0  0  0  0  0  0  0  0  0  0  0
    2.3570    0.2258    0.0407 C   0  0  0  0  0  0  0  0  0  0  0  0
    3.6858    0.8354    0.4797 C   0  0  0  0  0  0  0  0  0  0  0  0
    4.7190    1.3088   -0.9398 S   0  0  0  0  0  0  0  0  0  0  0  0
    5.3448   -0.2324   -1.4562 C   0  0  0  0  0  0  0  0  0  0  0  0
    6.7136   -0.3117   -2.0743 C   0  0  0  0  0  0  0  0  0  0  0  0
    6.4785   -0.8817   -0.7074 C   0  0  0  0  0  0  0  0  0  0  0  0
    1.2650    0.8018    0.6787 N   0  0  0  0  0  0  0  0  0  0  0  0
   -0.0977    0.4923    0.4880 C   0  0  0  0  0  0  0  0  0  0  0  0
   -0.5748   -0.3880   -0.4827 C   0  0  0  0  0  0  0  0  0  0  0  0
   -1.9478   -0.6357   -0.6118 C   0  0  0  0  0  0  0  0  0  0  0  0
   -2.8700   -0.0150    0.2349 C   0  0  0  0  0  0  0  0  0  0  0  0
   -4.2992   -0.2774    0.1150 C   0  0  0  0  0  0  0  0  0  0  0  0
   -4.8623   -0.9141   -0.9235 N   0  0  0  0  0  0  0  0  0  0  0  0
   -6.2168   -0.9398   -0.6099 O   0  0  0  0  0  0  0  0  0  0  0  0
   -6.3540   -0.3126    0.5938 C   0  0  0  0  0  0  0  0  0  0  0  0
   -7.7410   -0.2300    1.1157 C   0  0  0  0  0  0  0  0  0  0  0  0
   -7.7911    0.2025    2.4036 F   0  0  0  0  0  0  0  0  0  0  0  0
   -8.3784   -1.4346    1.0909 F   0  0  0  0  0  0  0  0  0  0  0  0
   -8.5100    0.6247    0.3887 F   0  0  0  0  0  0  0  0  0  0  0  0
   -5.2037    0.1167    1.0787 N   0  0  0  0  0  0  0  0  0  0  0  0
   -2.3889    0.8677    1.2083 C   0  0  0  0  0  0  0  0  0  0  0  0
   -1.0181    1.1241    1.3285 C   0  0  0  0  0  0  0  0  0  0  0  0
    3.5141    1.7453    1.0684 H   0  0  0  0  0  0  0  0  0  0  0  0
    4.2076    0.1168    1.1248 H   0  0  0  0  0  0  0  0  0  0  0  0
    4.5930   -0.8947   -1.8790 H   0  0  0  0  0  0  0  0  0  0  0  0
    6.8544   -1.0027   -2.8977 H   0  0  0  0  0  0  0  0  0  0  0  0
    7.3223    0.5815   -2.1399 H   0  0  0  0  0  0  0  0  0  0  0  0
    6.4701   -1.9599   -0.6079 H   0  0  0  0  0  0  0  0  0  0  0  0
    6.9222   -0.3675    0.1392 H   0  0  0  0  0  0  0  0  0  0  0  0
    1.4596    1.5039    1.3794 H   0  0  0  0  0  0  0  0  0  0  0  0
    0.0914   -0.8984   -1.1690 H   0  0  0  0  0  0  0  0  0  0  0  0
   -2.2820   -1.3272   -1.3830 H   0  0  0  0  0  0  0  0  0  0  0  0
   -3.0786    1.3676    1.8821 H   0  0  0  0  0  0  0  0  0  0  0  0
   -0.6880    1.8185    2.0962 H   0  0  0  0  0  0  0  0  0  0  0  0
  1  2  2  0
  2  3  1  0
  3  4  1  0
  4  5  1  0
  5  6  1  0
  6  7  1  0
  2  8  1  0
  8  9  1  0
  9 10  1  0
 10 11  2  0
 11 12  1  0
 12 13  1  0
 13 14  2  0
 14 15  1  0
 15 16  1  0
 16 17  1  0
 17 18  1  0
 17 19  1  0
 17 20  1  0
 16 21  2  0
 12 22  2  0
 22 23  1  0
  7  5  1  0
 23  9  2  0
 21 13  1  0
  3 24  1  0
  3 25  1  0
  5 26  1  0
  6 27  1  0
  6 28  1  0
  7 29  1  0
  7 30  1  0
  8 31  1  0
 10 32  1  0
 11 33  1  0
 22 34  1  0
 23 35  1  0
M  END
$$$$
OCNT-2315387
     RDKit          3D

 47 49  0  0  0  0  0  0  0  0999 V2000
    8.3040    1.2315   -0.6436 C   0  0  0  0  0  0  0  0  0  0  0  0
    7.2893    0.4227   -0.0203 N   0  0  0  0  0  0  0  0  0  0  0  0
    6.7482    0.7752    1.2008 C   0  0  0  0  0  0  0  0  0  0  0  0
    7.1879    1.6923    1.8920 O   0  0  0  0  0  0  0  0  0  0  0  0
    5.6085   -0.1013    1.6697 C   0  0  0  0  0  0  0  0  0  0  0  0
    4.5082   -0.1011    0.7258 N   0  0  0  0  0  0  0  0  0  0  0  0
    3.3068    0.5334    0.8654 C   0  0  0  0  0  0  0  0  0  0  0  0
    2.5857    0.2285   -0.2597 C   0  0  0  0  0  0  0  0  0  0  0  0
    1.3338    0.6712   -0.4979 N   0  0  0  0  0  0  0  0  0  0  0  0
    0.4604    0.1086   -1.5126 C   0  0  0  0  0  0  0  0  0  0  0  0
   -0.6395   -0.6914   -0.8570 C   0  0  0  0  0  0  0  0  0  0  0  0
   -0.3729   -1.9577   -0.3208 C   0  0  0  0  0  0  0  0  0  0  0  0
   -1.3869   -2.6930    0.2894 C   0  0  0  0  0  0  0  0  0  0  0  0
   -2.6780   -2.1681    0.3732 C   0  0  0  0  0  0  0  0  0  0  0  0
   -2.9783   -0.8988   -0.1458 C   0  0  0  0  0  0  0  0  0  0  0  0
   -4.3393   -0.3453   -0.0536 C   0  0  0  0  0  0  0  0  0  0  0  0
   -5.4439   -1.0553   -0.5494 C   0  0  0  0  0  0  0  0  0  0  0  0
   -6.7376   -0.5300   -0.4661 C   0  0  0  0  0  0  0  0  0  0  0  0
   -6.9597    0.7159    0.1277 C   0  0  0  0  0  0  0  0  0  0  0  0
   -8.3411    1.2966    0.1884 C   0  0  0  0  0  0  0  0  0  0  0  0
   -5.8656    1.4379    0.6137 C   0  0  0  0  0  0  0  0  0  0  0  0
   -4.5729    0.9108    0.5276 C   0  0  0  0  0  0  0  0  0  0  0  0
   -1.9413   -0.1715   -0.7567 C   0  0  0  0  0  0  0  0  0  0  0  0
    3.4407   -0.5868   -1.0293 C   0  0  0  0  0  0  0  0  0  0  0  0
    4.6195   -0.7968   -0.4310 N   0  0  0  0  0  0  0  0  0  0  0  0
    9.0690    1.5062    0.0875 H   0  0  0  0  0  0  0  0  0  0  0  0
    8.7536    0.6591   -1.4584 H   0  0  0  0  0  0  0  0  0  0  0  0
    7.8374    2.1377   -1.0396 H   0  0  0  0  0  0  0  0  0  0  0  0
    6.6941   -0.1493   -0.6228 H   0  0  0  0  0  0  0  0  0  0  0  0
    5.2349    0.2640    2.6318 H   0  0  0  0  0  0  0  0  0  0  0  0
    5.9540   -1.1325    1.7953 H   0  0  0  0  0  0  0  0  0  0  0  0
    3.0756    1.1328    1.7344 H   0  0  0  0  0  0  0  0  0  0  0  0
    0.8284    1.1565    0.2397 H   0  0  0  0  0  0  0  0  0  0  0  0
    0.9884   -0.5203   -2.2388 H   0  0  0  0  0  0  0  0  0  0  0  0
    0.0270    0.9330   -2.0914 H   0  0  0  0  0  0  0  0  0  0  0  0
    0.6322   -2.3720   -0.3702 H   0  0  0  0  0  0  0  0  0  0  0  0
   -1.1715   -3.6734    0.7064 H   0  0  0  0  0  0  0  0  0  0  0  0
   -3.4528   -2.7539    0.8642 H   0  0  0  0  0  0  0  0  0  0  0  0
   -5.3014   -2.0255   -1.0215 H   0  0  0  0  0  0  0  0  0  0  0  0
   -7.5691   -1.1026   -0.8706 H   0  0  0  0  0  0  0  0  0  0  0  0
   -8.4652    1.9129    1.0854 H   0  0  0  0  0  0  0  0  0  0  0  0
   -8.5262    1.9149   -0.6955 H   0  0  0  0  0  0  0  0  0  0  0  0
   -9.0971    0.5055    0.2308 H   0  0  0  0  0  0  0  0  0  0  0  0
   -6.0104    2.4160    1.0672 H   0  0  0  0  0  0  0  0  0  0  0  0
   -3.7435    1.4886    0.9303 H   0  0  0  0  0  0  0  0  0  0  0  0
   -2.1569    0.8119   -1.1724 H   0  0  0  0  0  0  0  0  0  0  0  0
    3.2631   -1.0370   -1.9962 H   0  0  0  0  0  0  0  0  0  0  0  0
  1  2  1  0
  2  3  1  0
  3  4  2  0
  3  5  1  0
  5  6  1  0
  6  7  1  0
  7  8  2  0
  8  9  1  0
  9 10  1  0
 10 11  1  0
 11 12  2  0
 12 13  1  0
 13 14  2  0
 14 15  1  0
 15 16  1  0
 16 17  1  0
 17 18  2  0
 18 19  1  0
 19 20  1  0
 19 21  2  0
 21 22  1  0
 15 23  2  0
  8 24  1  0
 24 25  2  0
 25  6  1  0
 23 11  1  0
 22 16  2  0
  1 26  1  0
  1 27  1  0
  1 28  1  0
  2 29  1  0
  5 30  1  0
  5 31  1  0
  7 32  1  0
  9 33  1  0
 10 34  1  0
 10 35  1  0
 12 36  1  0
 13 37  1  0
 14 38  1  0
 17 39  1  0
 18 40  1  0
 20 41  1  0
 20 42  1  0
 20 43  1  0
 21 44  1  0
 22 45  1  0
 23 46  1  0
 24 47  1  0
M  END
$$$$
OCNT-2315389
     RDKit          3D

 42 44  0  0  0  0  0  0  0  0999 V2000
    0.6828   -1.8541   -0.9128 O   0  0  0  0  0  0  0  0  0  0  0  0
    0.7422   -0.5268   -1.4831 S   0  0  0  0  0  0  0  0  0  0  0  0
    1.6977   -0.1910   -2.5170 O   0  0  0  0  0  0  0  0  0  0  0  0
    0.9009    0.6753   -0.1650 C   0  0  0  0  0  0  0  0  0  0  0  0
    2.0574    0.4099    0.7988 C   0  0  0  0  0  0  0  0  0  0  0  0
    3.4484    0.7965    0.2813 C   0  0  0  0  0  0  0  0  0  0  0  0
    4.1311   -0.2571   -0.6067 C   0  0  0  0  0  0  0  0  0  0  0  0
    5.5764   -0.3732   -0.1203 C   0  0  0  0  0  0  0  0  0  0  0  0
    5.7930    0.8298    0.7800 C   0  0  0  0  0  0  0  0  0  0  0  0
    4.4362    1.0061    1.4366 C   0  0  0  0  0  0  0  0  0  0  0  0
   -0.7563   -0.1325   -2.1470 N   0  0  0  0  0  0  0  0  0  0  0  0
   -1.9463   -0.2425   -1.3762 C   0  0  0  0  0  0  0  0  0  0  0  0
   -2.7413    0.8910   -1.2083 C   0  0  0  0  0  0  0  0  0  0  0  0
   -3.9145    0.8195   -0.4511 C   0  0  0  0  0  0  0  0  0  0  0  0
   -4.3057   -0.3935    0.1365 C   0  0  0  0  0  0  0  0  0  0  0  0
   -5.4997   -0.4439    0.9019 N   0  0  0  0  0  0  0  0  0  0  0  0
   -6.0683   -1.5124    1.5530 C   0  0  0  0  0  0  0  0  0  0  0  0
   -7.1775   -1.1488    2.1561 N   0  0  0  0  0  0  0  0  0  0  0  0
   -7.2628    0.1740    1.8490 C   0  0  0  0  0  0  0  0  0  0  0  0
   -6.2742    0.6541    1.0942 N   0  0  0  0  0  0  0  0  0  0  0  0
   -3.5126   -1.5332   -0.0473 C   0  0  0  0  0  0  0  0  0  0  0  0
   -2.3386   -1.4526   -0.8057 C   0  0  0  0  0  0  0  0  0  0  0  0
    0.9738    1.6677   -0.6200 H   0  0  0  0  0  0  0  0  0  0  0  0
   -0.0266    0.6239    0.4142 H   0  0  0  0  0  0  0  0  0  0  0  0
    1.8565    1.0139    1.6941 H   0  0  0  0  0  0  0  0  0  0  0  0
    2.0507   -0.6356    1.1292 H   0  0  0  0  0  0  0  0  0  0  0  0
    3.3787    1.7377   -0.2804 H   0  0  0  0  0  0  0  0  0  0  0  0
    4.1217    0.0723   -1.6512 H   0  0  0  0  0  0  0  0  0  0  0  0
    3.6409   -1.2350   -0.5625 H   0  0  0  0  0  0  0  0  0  0  0  0
    6.2910   -0.4050   -0.9483 H   0  0  0  0  0  0  0  0  0  0  0  0
    5.6955   -1.2978    0.4573 H   0  0  0  0  0  0  0  0  0  0  0  0
    6.5923    0.6664    1.5082 H   0  0  0  0  0  0  0  0  0  0  0  0
    6.0461    1.7131    0.1819 H   0  0  0  0  0  0  0  0  0  0  0  0
    4.2945    0.2490    2.2179 H   0  0  0  0  0  0  0  0  0  0  0  0
    4.3276    1.9936    1.8958 H   0  0  0  0  0  0  0  0  0  0  0  0
   -0.6946    0.6306   -2.8205 H   0  0  0  0  0  0  0  0  0  0  0  0
   -2.4618    1.8410   -1.6558 H   0  0  0  0  0  0  0  0  0  0  0  0
   -4.5162    1.7197   -0.3310 H   0  0  0  0  0  0  0  0  0  0  0  0
   -5.6491   -2.5070    1.5583 H   0  0  0  0  0  0  0  0  0  0  0  0
   -8.0718    0.8098    2.1865 H   0  0  0  0  0  0  0  0  0  0  0  0
   -3.7713   -2.5000    0.3747 H   0  0  0  0  0  0  0  0  0  0  0  0
   -1.7464   -2.3529   -0.9567 H   0  0  0  0  0  0  0  0  0  0  0  0
  1  2  2  0
  2  3  2  0
  2  4  1  0
  4  5  1  0
  5  6  1  0
  6  7  1  0
  7  8  1  0
  8  9  1  0
  9 10  1  0
  2 11  1  0
 11 12  1  0
 12 13  1  0
 13 14  2  0
 14 15  1  0
 15 16  1  0
 16 17  1  0
 17 18  2  0
 18 19  1  0
 19 20  2  0
 15 21  2  0
 21 22  1  0
 10  6  1  0
 22 12  2  0
 20 16  1  0
  4 23  1  0
  4 24  1  0
  5 25  1  0
  5 26  1  0
  6 27  1  0
  7 28  1  0
  7 29  1  0
  8 30  1  0
  8 31  1  0
  9 32  1  0
  9 33  1  0
 10 34  1  0
 10 35  1  0
 11 36  1  0
 13 37  1  0
 14 38  1  0
 17 39  1  0
 19 40  1  0
 21 41  1  0
 22 42  1  0
M  END
$$$$
OCNT-2315390
     RDKit          3D

 56 59  0  0  0  0  0  0  0  0999 V2000
    8.1250    1.4956   -0.1293 C   0  0  0  0  0  0  0  0  0  0  0  0
    7.4676    0.9745    1.0189 O   0  0  0  0  0  0  0  0  0  0  0  0
    6.1495    0.6278    0.8745 C   0  0  0  0  0  0  0  0  0  0  0  0
    5.5565    0.1309    2.0370 C   0  0  0  0  0  0  0  0  0  0  0  0
    4.2140   -0.2690    2.0578 C   0  0  0  0  0  0  0  0  0  0  0  0
    3.4527   -0.1646    0.8803 C   0  0  0  0  0  0  0  0  0  0  0  0
    2.1041   -0.4679    0.5431 C   0  0  0  0  0  0  0  0  0  0  0  0
    1.9039   -0.1492   -0.7897 C   0  0  0  0  0  0  0  0  0  0  0  0
    0.7471   -0.2390   -1.6532 C   0  0  0  0  0  0  0  0  0  0  0  0
    0.7979    0.0735   -2.8385 O   0  0  0  0  0  0  0  0  0  0  0  0
   -0.4036   -0.6626   -1.0370 N   0  0  0  0  0  0  0  0  0  0  0  0
   -1.7278   -0.5678   -1.6619 C   0  0  0  0  0  0  0  0  0  0  0  0
   -1.8566   -1.6011   -2.7882 C   0  0  0  0  0  0  0  0  0  0  0  0
   -2.8474   -0.6132   -0.5283 C   0  0  0  0  0  0  0  0  0  0  0  0
   -2.3208    0.1950    0.6308 N   0  0  0  0  0  0  0  0  0  0  0  0
   -2.3235    1.6617    0.4106 C   0  0  0  0  0  0  0  0  0  0  0  0
   -1.5207    2.3936    1.4988 C   0  0  0  0  0  0  0  0  0  0  0  0
   -2.0520    2.1166    2.7992 O   0  0  0  0  0  0  0  0  0  0  0  0
   -2.0178    0.7083    3.0494 C   0  0  0  0  0  0  0  0  0  0  0  0
   -2.8185   -0.0757    1.9905 C   0  0  0  0  0  0  0  0  0  0  0  0
   -4.2149   -0.1448   -1.0861 C   0  0  0  0  0  0  0  0  0  0  0  0
   -5.2731   -0.7576   -0.1777 C   0  0  0  0  0  0  0  0  0  0  0  0
   -4.6583   -2.0451    0.3632 C   0  0  0  0  0  0  0  0  0  0  0  0
   -3.2106   -2.0725   -0.1371 C   0  0  0  0  0  0  0  0  0  0  0  0
    3.1100    0.3243   -1.2598 N   0  0  0  0  0  0  0  0  0  0  0  0
    4.0617    0.3320   -0.2686 C   0  0  0  0  0  0  0  0  0  0  0  0
    5.4054    0.7362   -0.3061 C   0  0  0  0  0  0  0  0  0  0  0  0
    8.1567    0.7555   -0.9357 H   0  0  0  0  0  0  0  0  0  0  0  0
    9.1575    1.7249    0.1519 H   0  0  0  0  0  0  0  0  0  0  0  0
    7.6567    2.4272   -0.4640 H   0  0  0  0  0  0  0  0  0  0  0  0
    6.1476    0.0523    2.9466 H   0  0  0  0  0  0  0  0  0  0  0  0
    3.7734   -0.6526    2.9727 H   0  0  0  0  0  0  0  0  0  0  0  0
    1.3670   -0.8806    1.2189 H   0  0  0  0  0  0  0  0  0  0  0  0
   -0.4346   -0.5938   -0.0268 H   0  0  0  0  0  0  0  0  0  0  0  0
   -1.7731    0.4194   -2.1405 H   0  0  0  0  0  0  0  0  0  0  0  0
   -1.5817   -2.6055   -2.4491 H   0  0  0  0  0  0  0  0  0  0  0  0
   -2.8656   -1.6334   -3.2065 H   0  0  0  0  0  0  0  0  0  0  0  0
   -1.1794   -1.3603   -3.6148 H   0  0  0  0  0  0  0  0  0  0  0  0
   -3.3528    2.0391    0.4354 H   0  0  0  0  0  0  0  0  0  0  0  0
   -1.8878    1.9234   -0.5578 H   0  0  0  0  0  0  0  0  0  0  0  0
   -1.5823    3.4750    1.3400 H   0  0  0  0  0  0  0  0  0  0  0  0
   -0.4610    2.1119    1.4695 H   0  0  0  0  0  0  0  0  0  0  0  0
   -0.9739    0.3723    3.0826 H   0  0  0  0  0  0  0  0  0  0  0  0
   -2.4516    0.5377    4.0399 H   0  0  0  0  0  0  0  0  0  0  0  0
   -2.7205   -1.1324    2.2508 H   0  0  0  0  0  0  0  0  0  0  0  0
   -3.8703    0.2139    2.0760 H   0  0  0  0  0  0  0  0  0  0  0  0
   -4.3720   -0.5312   -2.0997 H   0  0  0  0  0  0  0  0  0  0  0  0
   -4.3244    0.9398   -1.1655 H   0  0  0  0  0  0  0  0  0  0  0  0
   -5.5259   -0.0765    0.6408 H   0  0  0  0  0  0  0  0  0  0  0  0
   -6.2008   -0.9541   -0.7253 H   0  0  0  0  0  0  0  0  0  0  0  0
   -4.7124   -2.0708    1.4560 H   0  0  0  0  0  0  0  0  0  0  0  0
   -5.2042   -2.9235    0.0016 H   0  0  0  0  0  0  0  0  0  0  0  0
   -3.1956   -2.7385   -1.0054 H   0  0  0  0  0  0  0  0  0  0  0  0
   -2.5202   -2.5178    0.5863 H   0  0  0  0  0  0  0  0  0  0  0  0
    3.2540    0.6252   -2.2150 H   0  0  0  0  0  0  0  0  0  0  0  0
    5.8277    1.1135   -1.2286 H   0  0  0  0  0  0  0  0  0  0  0  0
  1  2  1  0
  2  3  1  0
  3  4  2  0
  4  5  1  0
  5  6  2  0
  6  7  1  0
  7  8  2  0
  8  9  1  0
  9 10  2  0
  9 11  1  0
 11 12  1  0
 12 13  1  0
 12 14  1  0
 14 15  1  0
 15 16  1  0
 16 17  1  0
 17 18  1  0
 18 19  1  0
 19 20  1  0
 14 21  1  0
 21 22  1  0
 22 23  1  0
 23 24  1  0
  8 25  1  0
 25 26  1  0
 26 27  2  0
 27  3  1  0
 26  6  1  0
 24 14  1  0
 20 15  1  0
  1 28  1  0
  1 29  1  0
  1 30  1  0
  4 31  1  0
  5 32  1  0
  7 33  1  0
 11 34  1  0
 12 35  1  0
 13 36  1  0
 13 37  1  0
 13 38  1  0
 16 39  1  0
 16 40  1  0
 17 41  1  0
 17 42  1  0
 19 43  1  0
 19 44  1  0
 20 45  1  0
 20 46  1  0
 21 47  1  0
 21 48  1  0
 22 49  1  0
 22 50  1  0
 23 51  1  0
 23 52  1  0
 24 53  1  0
 24 54  1  0
 25 55  1  0
 27 56  1  0
M  END
$$$$
OCNT-2315394
     RDKit          3D

 43 46  0  0  0  0  0  0  0  0999 V2000
   -2.0540   -0.6701    1.3916 O   0  0  0  0  0  0  0  0  0  0  0  0
   -1.3888   -0.5823    0.3539 C   0  0  0  0  0  0  0  0  0  0  0  0
   -1.8875    0.2558   -0.8500 C   0  0  0  0  0  0  0  0  0  0  0  0
   -1.3228    1.9985   -0.6184 S   0  0  0  0  0  0  0  0  0  0  0  0
   -2.6110    2.5415    0.5581 C   0  0  0  0  0  0  0  0  0  0  0  0
   -4.0071    2.4742   -0.0593 C   0  0  0  0  0  0  0  0  0  0  0  0
   -4.3048    1.1295   -0.6542 C   0  0  0  0  0  0  0  0  0  0  0  0
   -3.3887    0.1553   -1.0206 C   0  0  0  0  0  0  0  0  0  0  0  0
   -4.0606   -0.9824   -1.5854 C   0  0  0  0  0  0  0  0  0  0  0  0
   -5.4279   -0.8279   -1.6217 C   0  0  0  0  0  0  0  0  0  0  0  0
   -5.9176    0.6788   -0.9887 S   0  0  0  0  0  0  0  0  0  0  0  0
   -0.1440   -1.2118    0.2459 N   0  0  0  0  0  0  0  0  0  0  0  0
    0.6917   -1.1791   -0.9538 C   0  0  0  0  0  0  0  0  0  0  0  0
    2.0514   -1.8474   -0.7601 C   0  0  0  0  0  0  0  0  0  0  0  0
    2.7242   -1.4500    0.5657 C   0  0  0  0  0  0  0  0  0  0  0  0
    3.4126   -0.0983    0.4452 C   0  0  0  0  0  0  0  0  0  0  0  0
    4.7846   -0.0423    0.1712 C   0  0  0  0  0  0  0  0  0  0  0  0
    5.3960    1.1961    0.0383 C   0  0  0  0  0  0  0  0  0  0  0  0
    4.7447    2.3715    0.1506 N   0  0  0  0  0  0  0  0  0  0  0  0
    3.4224    2.3035    0.4090 C   0  0  0  0  0  0  0  0  0  0  0  0
    2.7239    1.1143    0.5609 C   0  0  0  0  0  0  0  0  0  0  0  0
    1.7594   -1.5579    1.7683 C   0  0  0  0  0  0  0  0  0  0  0  0
    0.3540   -2.0006    1.3685 C   0  0  0  0  0  0  0  0  0  0  0  0
   -1.4367   -0.1020   -1.7792 H   0  0  0  0  0  0  0  0  0  0  0  0
   -2.3903    3.5729    0.8521 H   0  0  0  0  0  0  0  0  0  0  0  0
   -2.5499    1.9308    1.4646 H   0  0  0  0  0  0  0  0  0  0  0  0
   -4.7431    2.7187    0.7164 H   0  0  0  0  0  0  0  0  0  0  0  0
   -4.1019    3.2378   -0.8422 H   0  0  0  0  0  0  0  0  0  0  0  0
   -3.5630   -1.8770   -1.9406 H   0  0  0  0  0  0  0  0  0  0  0  0
   -6.1648   -1.5289   -1.9889 H   0  0  0  0  0  0  0  0  0  0  0  0
    0.8234   -0.1377   -1.2613 H   0  0  0  0  0  0  0  0  0  0  0  0
    0.1475   -1.6897   -1.7564 H   0  0  0  0  0  0  0  0  0  0  0  0
    1.9045   -2.9361   -0.7578 H   0  0  0  0  0  0  0  0  0  0  0  0
    2.6972   -1.6313   -1.6199 H   0  0  0  0  0  0  0  0  0  0  0  0
    3.5181   -2.1888    0.7475 H   0  0  0  0  0  0  0  0  0  0  0  0
    5.3776   -0.9444    0.0601 H   0  0  0  0  0  0  0  0  0  0  0  0
    6.4590    1.2749   -0.1710 H   0  0  0  0  0  0  0  0  0  0  0  0
    2.9162    3.2612    0.4929 H   0  0  0  0  0  0  0  0  0  0  0  0
    1.6589    1.1526    0.7647 H   0  0  0  0  0  0  0  0  0  0  0  0
    2.1600   -2.2857    2.4856 H   0  0  0  0  0  0  0  0  0  0  0  0
    1.6932   -0.6144    2.3224 H   0  0  0  0  0  0  0  0  0  0  0  0
   -0.3074   -1.9292    2.2376 H   0  0  0  0  0  0  0  0  0  0  0  0
    0.3516   -3.0526    1.0586 H   0  0  0  0  0  0  0  0  0  0  0  0
  1  2  2  0
  2  3  1  0
  3  4  1  0
  4  5  1  0
  5  6  1  0
  6  7  1  0
  7  8  2  0
  8  9  1  0
  9 10  2  0
 10 11  1  0
  2 12  1  0
 12 13  1  0
 13 14  1  0
 14 15  1  0
 15 16  1  0
 16 17  2  0
 17 18  1  0
 18 19  2  0
 19 20  1  0
 20 21  2  0
 15 22  1  0
 22 23  1  0
  8  3  1  0
 23 12  1  0
 11  7  1  0
 21 16  1  0
  3 24  1  0
  5 25  1  0
  5 26  1  0
  6 27  1  0
  6 28  1  0
  9 29  1  0
 10 30  1  0
 13 31  1  0
 13 32  1  0
 14 33  1  0
 14 34  1  0
 15 35  1  0
 17 36  1  0
 18 37  1  0
 20 38  1  0
 21 39  1  0
 22 40  1  0
 22 41  1  0
 23 42  1  0
 23 43  1  0
M  END
$$$$
OCNT-2315408
     RDKit          3D

 56 59  0  0  0  0  0  0  0  0999 V2000
   -4.6397   -0.6879    2.7016 C   0  0  0  0  0  0  0  0  0  0  0  0
   -5.0100   -1.9657    2.0641 N   0  0  0  0  0  0  0  0  0  0  0  0
   -6.3025   -1.9160    1.3609 C   0  0  0  0  0  0  0  0  0  0  0  0
   -3.7672   -2.8527    1.3116 S   0  0  0  0  0  0  0  0  0  0  0  0
   -2.5983   -2.8425    2.1657 O   0  0  0  0  0  0  0  0  0  0  0  0
   -4.3342   -4.1026    0.8466 O   0  0  0  0  0  0  0  0  0  0  0  0
   -3.3731   -1.8876   -0.1322 C   0  0  0  0  0  0  0  0  0  0  0  0
   -3.7859   -2.3234   -1.3946 C   0  0  0  0  0  0  0  0  0  0  0  0
   -3.4189   -1.5939   -2.5229 C   0  0  0  0  0  0  0  0  0  0  0  0
   -2.6482   -0.4359   -2.3847 C   0  0  0  0  0  0  0  0  0  0  0  0
   -2.2488    0.0095   -1.1187 C   0  0  0  0  0  0  0  0  0  0  0  0
   -1.4803    1.1861   -1.0547 N   0  0  0  0  0  0  0  0  0  0  0  0
   -1.2383    1.9576    0.0753 C   0  0  0  0  0  0  0  0  0  0  0  0
   -1.8324    1.8443    1.1451 O   0  0  0  0  0  0  0  0  0  0  0  0
   -0.2458    3.0993   -0.1643 C   0  0  0  0  0  0  0  0  0  0  0  0
    1.0024    2.5804   -0.6872 N   0  0  0  0  0  0  0  0  0  0  0  0
    1.2196    2.2429   -1.9830 C   0  0  0  0  0  0  0  0  0  0  0  0
    0.3996    2.3059   -2.8867 O   0  0  0  0  0  0  0  0  0  0  0  0
    2.4828    1.7291   -2.1076 N   0  0  0  0  0  0  0  0  0  0  0  0
    3.1475    1.5779   -0.8246 C   0  0  0  0  0  0  0  0  0  0  0  0
    4.4211    2.4354   -0.8150 C   0  0  0  0  0  0  0  0  0  0  0  0
    5.3213    2.0899    0.3655 C   0  0  0  0  0  0  0  0  0  0  0  0
    5.7523    0.6295    0.2916 C   0  0  0  0  0  0  0  0  0  0  0  0
    4.5969   -0.3172    0.0787 C   0  0  0  0  0  0  0  0  0  0  0  0
    4.7745   -1.6693    0.4173 C   0  0  0  0  0  0  0  0  0  0  0  0
    3.7480   -2.5916    0.2337 C   0  0  0  0  0  0  0  0  0  0  0  0
    2.5352   -2.1773   -0.3020 C   0  0  0  0  0  0  0  0  0  0  0  0
    2.3496   -0.8401   -0.6564 C   0  0  0  0  0  0  0  0  0  0  0  0
    3.3749    0.1117   -0.4785 C   0  0  0  0  0  0  0  0  0  0  0  0
    2.0703    2.2171    0.0895 C   0  0  0  0  0  0  0  0  0  0  0  0
    2.1488    2.3737    1.3016 O   0  0  0  0  0  0  0  0  0  0  0  0
   -2.5914   -0.7373    0.0076 C   0  0  0  0  0  0  0  0  0  0  0  0
   -3.6820   -0.7642    3.2249 H   0  0  0  0  0  0  0  0  0  0  0  0
   -4.5936    0.1223    1.9690 H   0  0  0  0  0  0  0  0  0  0  0  0
   -5.3886   -0.4273    3.4562 H   0  0  0  0  0  0  0  0  0  0  0  0
   -7.0622   -1.4541    2.0001 H   0  0  0  0  0  0  0  0  0  0  0  0
   -6.2291   -1.3330    0.4386 H   0  0  0  0  0  0  0  0  0  0  0  0
   -6.6542   -2.9258    1.1280 H   0  0  0  0  0  0  0  0  0  0  0  0
   -4.3706   -3.2347   -1.5097 H   0  0  0  0  0  0  0  0  0  0  0  0
   -3.7260   -1.9291   -3.5116 H   0  0  0  0  0  0  0  0  0  0  0  0
   -2.3751    0.1189   -3.2796 H   0  0  0  0  0  0  0  0  0  0  0  0
   -1.1660    1.5724   -1.9472 H   0  0  0  0  0  0  0  0  0  0  0  0
   -0.0606    3.6107    0.7847 H   0  0  0  0  0  0  0  0  0  0  0  0
   -0.6852    3.8014   -0.8804 H   0  0  0  0  0  0  0  0  0  0  0  0
    2.7809    1.2678   -2.9561 H   0  0  0  0  0  0  0  0  0  0  0  0
    4.1713    3.5048   -0.7836 H   0  0  0  0  0  0  0  0  0  0  0  0
    4.9868    2.2776   -1.7453 H   0  0  0  0  0  0  0  0  0  0  0  0
    6.2072    2.7334    0.3601 H   0  0  0  0  0  0  0  0  0  0  0  0
    4.7955    2.2812    1.3094 H   0  0  0  0  0  0  0  0  0  0  0  0
    6.4612    0.4955   -0.5370 H   0  0  0  0  0  0  0  0  0  0  0  0
    6.2785    0.3727    1.2213 H   0  0  0  0  0  0  0  0  0  0  0  0
    5.7176   -2.0058    0.8449 H   0  0  0  0  0  0  0  0  0  0  0  0
    3.8922   -3.6302    0.5194 H   0  0  0  0  0  0  0  0  0  0  0  0
    1.7264   -2.8912   -0.4355 H   0  0  0  0  0  0  0  0  0  0  0  0
    1.3816   -0.5536   -1.0625 H   0  0  0  0  0  0  0  0  0  0  0  0
   -2.2356   -0.4584    0.9955 H   0  0  0  0  0  0  0  0  0  0  0  0
  1  2  1  0
  2  3  1  0
  2  4  1  0
  4  5  2  0
  4  6  2  0
  4  7  1  0
  7  8  2  0
  8  9  1  0
  9 10  2  0
 10 11  1  0
 11 12  1  0
 12 13  1  0
 13 14  2  0
 13 15  1  0
 15 16  1  0
 16 17  1  0
 17 18  2  0
 17 19  1  0
 19 20  1  0
 20 21  1  0
 21 22  1  0
 22 23  1  0
 23 24  1  0
 24 25  2  0
 25 26  1  0
 26 27  2  0
 27 28  1  0
 28 29  2  0
 20 30  1  0
 30 31  2  0
 11 32  2  0
 32  7  1  0
 30 16  1  0
 29 20  1  0
 29 24  1  0
  1 33  1  0
  1 34  1  0
  1 35  1  0
  3 36  1  0
  3 37  1  0
  3 38  1  0
  8 39  1  0
  9 40  1  0
 10 41  1  0
 12 42  1  0
 15 43  1  0
 15 44  1  0
 19 45  1  0
 21 46  1  0
 21 47  1  0
 22 48  1  0
 22 49  1  0
 23 50  1  0
 23 51  1  0
 25 52  1  0
 26 53  1  0
 27 54  1  0
 28 55  1  0
 32 56  1  0
M  END
$$$$
OCNT-2315417
     RDKit          3D

 50 52  0  0  0  0  0  0  0  0999 V2000
    8.8537   -1.2288   -0.1348 C   0  0  0  0  0  0  0  0  0  0  0  0
    7.2128   -1.6811   -0.6386 S   0  0  0  0  0  0  0  0  0  0  0  0
    7.0248   -1.1623   -1.9805 O   0  0  0  0  0  0  0  0  0  0  0  0
    7.0622   -3.0991   -0.3620 O   0  0  0  0  0  0  0  0  0  0  0  0
    6.1994   -0.7580    0.5081 C   0  0  0  0  0  0  0  0  0  0  0  0
    4.7658   -0.9288    0.1784 C   0  0  0  0  0  0  0  0  0  0  0  0
    3.9649   -1.9958   -0.1675 C   0  0  0  0  0  0  0  0  0  0  0  0
    2.6559   -1.4785   -0.3333 C   0  0  0  0  0  0  0  0  0  0  0  0
    2.7175   -0.1226   -0.0607 C   0  0  0  0  0  0  0  0  0  0  0  0
    1.7300    0.9430   -0.0508 C   0  0  0  0  0  0  0  0  0  0  0  0
    1.9807    2.0994    0.2829 O   0  0  0  0  0  0  0  0  0  0  0  0
    0.4576    0.5661   -0.4420 N   0  0  0  0  0  0  0  0  0  0  0  0
   -0.6560    1.4955   -0.4471 C   0  0  0  0  0  0  0  0  0  0  0  0
   -1.2851    1.6612    0.9498 C   0  0  0  0  0  0  0  0  0  0  0  0
   -2.2611    2.8430    0.9719 C   0  0  0  0  0  0  0  0  0  0  0  0
   -3.5093    2.5925    0.1135 C   0  0  0  0  0  0  0  0  0  0  0  0
   -3.8660    1.1687   -0.0028 N   0  0  0  0  0  0  0  0  0  0  0  0
   -5.2816    1.0238   -0.3835 C   0  0  0  0  0  0  0  0  0  0  0  0
   -5.5886   -0.3536   -0.9073 C   0  0  0  0  0  0  0  0  0  0  0  0
   -4.9546   -1.0455   -1.9226 C   0  0  0  0  0  0  0  0  0  0  0  0
   -5.5316   -2.3272   -2.1512 C   0  0  0  0  0  0  0  0  0  0  0  0
   -6.5918   -2.5711   -1.3078 C   0  0  0  0  0  0  0  0  0  0  0  0
   -6.8864   -1.2607   -0.2498 S   0  0  0  0  0  0  0  0  0  0  0  0
   -3.5384    0.4417    1.2253 C   0  0  0  0  0  0  0  0  0  0  0  0
   -2.0150    0.3816    1.4106 C   0  0  0  0  0  0  0  0  0  0  0  0
    4.0097    0.2023    0.2621 O   0  0  0  0  0  0  0  0  0  0  0  0
    9.5645   -1.7550   -0.7754 H   0  0  0  0  0  0  0  0  0  0  0  0
    8.9747   -0.1502   -0.2506 H   0  0  0  0  0  0  0  0  0  0  0  0
    8.9982   -1.5255    0.9056 H   0  0  0  0  0  0  0  0  0  0  0  0
    6.4992    0.2916    0.4331 H   0  0  0  0  0  0  0  0  0  0  0  0
    6.4117   -1.1275    1.5152 H   0  0  0  0  0  0  0  0  0  0  0  0
    4.2840   -3.0225   -0.2970 H   0  0  0  0  0  0  0  0  0  0  0  0
    1.7779   -2.0413   -0.6148 H   0  0  0  0  0  0  0  0  0  0  0  0
    0.2698   -0.3960   -0.6788 H   0  0  0  0  0  0  0  0  0  0  0  0
   -1.3773    1.1182   -1.1787 H   0  0  0  0  0  0  0  0  0  0  0  0
   -0.2891    2.4625   -0.8106 H   0  0  0  0  0  0  0  0  0  0  0  0
   -0.4783    1.8686    1.6649 H   0  0  0  0  0  0  0  0  0  0  0  0
   -1.7640    3.7634    0.6430 H   0  0  0  0  0  0  0  0  0  0  0  0
   -2.5730    3.0155    2.0109 H   0  0  0  0  0  0  0  0  0  0  0  0
   -3.3344    2.9834   -0.8962 H   0  0  0  0  0  0  0  0  0  0  0  0
   -4.3327    3.1786    0.5429 H   0  0  0  0  0  0  0  0  0  0  0  0
   -5.5127    1.7221   -1.2001 H   0  0  0  0  0  0  0  0  0  0  0  0
   -5.9363    1.2942    0.4551 H   0  0  0  0  0  0  0  0  0  0  0  0
   -4.1092   -0.6443   -2.4690 H   0  0  0  0  0  0  0  0  0  0  0  0
   -5.1874   -3.0328   -2.8970 H   0  0  0  0  0  0  0  0  0  0  0  0
   -7.2113   -3.4560   -1.2616 H   0  0  0  0  0  0  0  0  0  0  0  0
   -3.9047   -0.5911    1.1985 H   0  0  0  0  0  0  0  0  0  0  0  0
   -4.0098    0.9164    2.0962 H   0  0  0  0  0  0  0  0  0  0  0  0
   -1.6173   -0.4983    0.8908 H   0  0  0  0  0  0  0  0  0  0  0  0
   -1.8122    0.2203    2.4771 H   0  0  0  0  0  0  0  0  0  0  0  0
  1  2  1  0
  2  3  2  0
  2  4  2  0
  2  5  1  0
  5  6  1  0
  6  7  2  0
  7  8  1  0
  8  9  2  0
  9 10  1  0
 10 11  2  0
 10 12  1  0
 12 13  1  0
 13 14  1  0
 14 15  1  0
 15 16  1  0
 16 17  1  0
 17 18  1  0
 18 19  1  0
 19 20  2  0
 20 21  1  0
 21 22  2  0
 22 23  1  0
 17 24  1  0
 24 25  1  0
  9 26  1  0
 26  6  1  0
 25 14  1  0
 23 19  1  0
  1 27  1  0
  1 28  1  0
  1 29  1  0
  5 30  1  0
  5 31  1  0
  7 32  1  0
  8 33  1  0
 12 34  1  0
 13 35  1  0
 13 36  1  0
 14 37  1  0
 15 38  1  0
 15 39  1  0
 16 40  1  0
 16 41  1  0
 18 42  1  0
 18 43  1  0
 20 44  1  0
 21 45  1  0
 22 46  1  0
 24 47  1  0
 24 48  1  0
 25 49  1  0
 25 50  1  0
M  END
$$$$
OCNT-2315433
     RDKit          3D

  0  0  0  0  0  0  0  0  0  0999 V3000
M  V30 BEGIN CTAB
M  V30 COUNTS 54 56 0 0 0
M  V30 BEGIN ATOM
M  V30 1 C -5.907151 -0.606593 0.001014 0
M  V30 2 C -4.661708 -0.500415 0.874941 0
M  V30 3 O -3.880542 -1.677572 0.649802 0
M  V30 4 C -3.844362 0.765075 0.515810 0
M  V30 5 N -2.908363 1.219683 1.570568 0
M  V30 6 C -1.851605 0.250951 1.891987 0
M  V30 7 C -0.801593 0.083951 0.789822 0
M  V30 8 C -0.180323 1.435248 0.415949 0
M  V30 9 C 0.904285 1.338108 -0.676704 0
M  V30 10 N 0.523565 0.693220 -1.937817 0
M  V30 11 C -0.294270 1.443115 -2.874817 0
M  V30 12 C 0.803441 -0.629602 -2.277885 0
M  V30 13 O 0.370844 -1.169588 -3.291252 0
M  V30 14 C 1.677223 -1.417951 -1.366084 0 CFG=1
M  V30 15 C 2.619930 -2.455140 -1.945057 0
M  V30 16 C 3.179354 -1.184914 -1.368362 0 CFG=2
M  V30 17 C 3.978233 -1.193029 -0.076765 0
M  V30 18 C 3.655304 -1.992890 1.035569 0
M  V30 19 C 4.411324 -1.963067 2.212601 0
M  V30 20 C 5.520188 -1.127861 2.307112 0
M  V30 21 C 5.865356 -0.330508 1.222591 0
M  V30 22 Cl 7.235816 0.705444 1.325655 0
M  V30 23 C 5.107440 -0.361270 0.049556 0
M  V30 24 C -1.274618 2.468416 0.114578 0
M  V30 25 C -2.313949 2.524734 1.240441 0
M  V30 26 H -6.466634 -1.517679 0.239705 0
M  V30 27 H -5.635979 -0.671861 -1.059112 0
M  V30 28 H -6.569120 0.253131 0.143328 0
M  V30 29 H -4.956501 -0.475312 1.930418 0
M  V30 30 H -4.396786 -2.431254 0.982165 0
M  V30 31 H -3.318530 0.594587 -0.431430 0
M  V30 32 H -4.560477 1.580600 0.348477 0
M  V30 33 H -1.344322 0.596365 2.803052 0
M  V30 34 H -2.268166 -0.720585 2.171934 0
M  V30 35 H -0.019251 -0.590454 1.155367 0
M  V30 36 H -1.252341 -0.392624 -0.087238 0
M  V30 37 H 0.341728 1.802063 1.312660 0
M  V30 38 H 1.755890 0.805899 -0.246294 0
M  V30 39 H 1.277528 2.340999 -0.920004 0
M  V30 40 H -1.343251 1.178472 -2.719891 0
M  V30 41 H -0.023459 1.187099 -3.903850 0
M  V30 42 H -0.147334 2.517410 -2.736294 0
M  V30 43 H 1.178923 -1.723927 -0.456169 0
M  V30 44 H 2.741077 -3.387142 -1.407462 0
M  V30 45 H 2.648886 -2.575985 -3.023488 0
M  V30 46 H 3.530655 -0.470132 -2.114826 0
M  V30 47 H 2.797753 -2.662568 0.994489 0
M  V30 48 H 4.132738 -2.595488 3.051526 0
M  V30 49 H 6.107822 -1.106259 3.220531 0
M  V30 50 H 5.399758 0.272905 -0.785682 0
M  V30 51 H -0.822908 3.460208 -0.007148 0
M  V30 52 H -1.784196 2.239886 -0.823590 0
M  V30 53 H -3.099210 3.246415 0.982371 0
M  V30 54 H -1.838111 2.927690 2.144462 0
M  V30 END ATOM
M  V30 BEGIN BOND
M  V30 1 1 1 2
M  V30 2 1 2 3
M  V30 3 1 2 4
M  V30 4 1 4 5
M  V30 5 1 5 6
M  V30 6 1 6 7
M  V30 7 1 7 8
M  V30 8 1 8 9
M  V30 9 1 9 10
M  V30 10 1 10 11
M  V30 11 1 10 12
M  V30 12 2 12 13
M  V30 13 1 12 14
M  V30 14 1 14 15
M  V30 15 1 15 16
M  V30 16 1 16 17
M  V30 17 2 17 18
M  V30 18 1 18 19
M  V30 19 2 19 20
M  V30 20 1 20 21
M  V30 21 1 21 22
M  V30 22 2 21 23
M  V30 23 1 8 24
M  V30 24 1 24 25
M  V30 25 1 25 5
M  V30 26 1 16 14
M  V30 27 1 23 17
M  V30 28 1 1 26
M  V30 29 1 1 27
M  V30 30 1 1 28
M  V30 31 1 2 29
M  V30 32 1 3 30
M  V30 33 1 4 31
M  V30 34 1 4 32
M  V30 35 1 6 33
M  V30 36 1 6 34
M  V30 37 1 7 35
M  V30 38 1 7 36
M  V30 39 1 8 37
M  V30 40 1 9 38
M  V30 41 1 9 39
M  V30 42 1 11 40
M  V30 43 1 11 41
M  V30 44 1 11 42
M  V30 45 1 14 43 CFG=1
M  V30 46 1 15 44
M  V30 47 1 15 45
M  V30 48 1 16 46 CFG=3
M  V30 49 1 18 47
M  V30 50 1 19 48
M  V30 51 1 20 49
M  V30 52 1 23 50
M  V30 53 1 24 51
M  V30 54 1 24 52
M  V30 55 1 25 53
M  V30 56 1 25 54
M  V30 END BOND
M  V30 BEGIN COLLECTION
M  V30 MDLV30/STERAC1 ATOMS=(2 14 16)
M  V30 END COLLECTION
M  V30 END CTAB
M  END
>  <_CXSMILES_Data>  (971) 
|&1:13,15|

$$$$
OCNT-2315444
     RDKit          3D

  0  0  0  0  0  0  0  0  0  0999 V3000
M  V30 BEGIN CTAB
M  V30 COUNTS 48 51 0 0 0
M  V30 BEGIN ATOM
M  V30 1 O -2.501992 -0.764470 2.647940 0
M  V30 2 C -2.008076 -0.396162 1.585505 0
M  V30 3 C -0.575888 -0.680559 1.342630 0
M  V30 4 C -0.160849 -1.360027 0.196553 0
M  V30 5 C 1.198065 -1.637629 0.003145 0
M  V30 6 C 2.161645 -1.232956 0.935553 0
M  V30 7 N 3.518085 -1.526743 0.819768 0
M  V30 8 C 4.152352 -1.804562 -0.469457 0
M  V30 9 C 4.224381 -0.580786 -1.387388 0
M  V30 10 N 5.057347 0.476976 -0.852675 0
M  V30 11 C 6.408782 0.603571 -1.009003 0
M  V30 12 C 6.735737 1.752661 -0.326896 0
M  V30 13 N 5.619469 2.323109 0.228257 0
M  V30 14 C 4.622107 1.539254 -0.113521 0
M  V30 15 C 1.711810 -0.606904 2.109128 0
M  V30 16 C 0.357447 -0.326107 2.314682 0
M  V30 17 N -2.721524 0.277068 0.608674 0
M  V30 18 C -2.171468 1.005333 -0.524953 0
M  V30 19 C -3.198063 2.089791 -0.807949 0
M  V30 20 C -4.526557 1.463843 -0.392434 0 CFG=1
M  V30 21 C -5.172061 0.567053 -1.460719 0
M  V30 22 C -5.067249 -0.862406 -0.941883 0
M  V30 23 C -5.011837 -0.706034 0.570737 0
M  V30 24 C -4.150241 0.536862 0.774674 0 CFG=1
M  V30 25 H -0.890085 -1.703384 -0.532200 0
M  V30 26 H 1.477192 -2.197070 -0.883948 0
M  V30 27 H 4.102392 -0.965296 1.439627 0
M  V30 28 H 5.168003 -2.164737 -0.264402 0
M  V30 29 H 3.642272 -2.629075 -0.979581 0
M  V30 30 H 4.651719 -0.867423 -2.355413 0
M  V30 31 H 3.233309 -0.156380 -1.581410 0
M  V30 32 H 7.008371 -0.102497 -1.565931 0
M  V30 33 H 7.713995 2.200175 -0.206925 0
M  V30 34 H 3.582626 1.688863 0.150536 0
M  V30 35 H 2.420637 -0.332572 2.887863 0
M  V30 36 H 0.034222 0.156542 3.234011 0
M  V30 37 H -2.094473 0.311689 -1.368572 0
M  V30 38 H -1.184045 1.419066 -0.302636 0
M  V30 39 H -3.175907 2.430827 -1.846881 0
M  V30 40 H -2.994273 2.955832 -0.165670 0
M  V30 41 H -5.242431 2.235810 -0.088355 0
M  V30 42 H -4.718722 0.673897 -2.451211 0
M  V30 43 H -6.230738 0.836888 -1.559823 0
M  V30 44 H -5.909957 -1.481218 -1.263953 0
M  V30 45 H -4.147297 -1.331087 -1.310369 0
M  V30 46 H -4.613622 -1.601703 1.055985 0
M  V30 47 H -6.021499 -0.525187 0.958695 0
M  V30 48 H -4.313111 0.997866 1.754797 0
M  V30 END ATOM
M  V30 BEGIN BOND
M  V30 1 2 1 2
M  V30 2 1 2 3
M  V30 3 1 3 4
M  V30 4 2 4 5
M  V30 5 1 5 6
M  V30 6 1 6 7
M  V30 7 1 7 8
M  V30 8 1 8 9
M  V30 9 1 9 10
M  V30 10 1 10 11
M  V30 11 2 11 12
M  V30 12 1 12 13
M  V30 13 2 13 14
M  V30 14 2 6 15
M  V30 15 1 15 16
M  V30 16 1 2 17
M  V30 17 1 17 18
M  V30 18 1 18 19
M  V30 19 1 19 20
M  V30 20 1 20 21
M  V30 21 1 21 22
M  V30 22 1 22 23
M  V30 23 1 23 24
M  V30 24 2 16 3
M  V30 25 1 24 17
M  V30 26 1 14 10
M  V30 27 1 24 20
M  V30 28 1 4 25
M  V30 29 1 5 26
M  V30 30 1 7 27
M  V30 31 1 8 28
M  V30 32 1 8 29
M  V30 33 1 9 30
M  V30 34 1 9 31
M  V30 35 1 11 32
M  V30 36 1 12 33
M  V30 37 1 14 34
M  V30 38 1 15 35
M  V30 39 1 16 36
M  V30 40 1 18 37
M  V30 41 1 18 38
M  V30 42 1 19 39
M  V30 43 1 19 40
M  V30 44 1 20 41 CFG=1
M  V30 45 1 21 42
M  V30 46 1 21 43
M  V30 47 1 22 44
M  V30 48 1 22 45
M  V30 49 1 23 46
M  V30 50 1 23 47
M  V30 51 1 24 48 CFG=1
M  V30 END BOND
M  V30 BEGIN COLLECTION
M  V30 MDLV30/STERAC1 ATOMS=(2 20 24)
M  V30 END COLLECTION
M  V30 END CTAB
M  END
>  <_CXSMILES_Data>  (972) 
|&1:19,23|

$$$$
OCNT-2315451
     RDKit          3D

 49 53  0  0  0  0  0  0  0  0999 V2000
    6.2565    0.8635    1.9134 C   0  0  0  0  0  0  0  0  0  0  0  0
    5.6508    0.3794    0.7215 O   0  0  0  0  0  0  0  0  0  0  0  0
    4.3145    0.6262    0.5628 C   0  0  0  0  0  0  0  0  0  0  0  0
    3.5036    1.3336    1.4406 C   0  0  0  0  0  0  0  0  0  0  0  0
    2.1518    1.5054    1.1448 C   0  0  0  0  0  0  0  0  0  0  0  0
    1.5930    0.9647   -0.0280 C   0  0  0  0  0  0  0  0  0  0  0  0
    0.1312    1.2220   -0.3208 C   0  0  0  0  0  0  0  0  0  0  0  0
   -0.4699    0.2426   -1.2368 N   0  0  0  0  0  0  0  0  0  0  0  0
   -0.9301   -0.9284   -0.6024 C   0  0  0  0  0  0  0  0  0  0  0  0
   -0.2553   -2.0745   -0.7928 N   0  0  0  0  0  0  0  0  0  0  0  0
   -0.6778   -3.1546   -0.1303 C   0  0  0  0  0  0  0  0  0  0  0  0
   -1.7341   -3.2200    0.6853 N   0  0  0  0  0  0  0  0  0  0  0  0
   -2.4385   -2.0981    0.8326 C   0  0  0  0  0  0  0  0  0  0  0  0
   -3.5638   -2.1307    1.6507 C   0  0  0  0  0  0  0  0  0  0  0  0
   -4.3799   -1.0117    1.8378 C   0  0  0  0  0  0  0  0  0  0  0  0
   -4.0703    0.1662    1.1697 C   0  0  0  0  0  0  0  0  0  0  0  0
   -5.0805    1.6101    1.3862 S   0  0  0  0  0  0  0  0  0  0  0  0
   -6.1738    1.5593   -0.0094 C   0  0  0  0  0  0  0  0  0  0  0  0
   -4.2128    2.7640    1.2470 O   0  0  0  0  0  0  0  0  0  0  0  0
   -5.8705    1.4141    2.5865 O   0  0  0  0  0  0  0  0  0  0  0  0
   -2.9389    0.2353    0.3574 C   0  0  0  0  0  0  0  0  0  0  0  0
   -2.0972   -0.8949    0.1934 C   0  0  0  0  0  0  0  0  0  0  0  0
    0.3076    0.0383   -2.4635 C   0  0  0  0  0  0  0  0  0  0  0  0
    1.7717   -0.3280   -2.2199 C   0  0  0  0  0  0  0  0  0  0  0  0
    2.2442   -1.6907   -2.7117 C   0  0  0  0  0  0  0  0  0  0  0  0
    2.6279   -0.4598   -3.4739 C   0  0  0  0  0  0  0  0  0  0  0  0
    2.3947    0.2546   -0.9442 C   0  0  0  0  0  0  0  0  0  0  0  0
    3.7573    0.1006   -0.6091 C   0  0  0  0  0  0  0  0  0  0  0  0
    7.3111    0.5721    1.8946 H   0  0  0  0  0  0  0  0  0  0  0  0
    5.8017    0.4102    2.8005 H   0  0  0  0  0  0  0  0  0  0  0  0
    6.2141    1.9566    1.9613 H   0  0  0  0  0  0  0  0  0  0  0  0
    3.8870    1.7646    2.3587 H   0  0  0  0  0  0  0  0  0  0  0  0
    1.5288    2.0664    1.8388 H   0  0  0  0  0  0  0  0  0  0  0  0
   -0.4206    1.2828    0.6247 H   0  0  0  0  0  0  0  0  0  0  0  0
    0.0547    2.2143   -0.7844 H   0  0  0  0  0  0  0  0  0  0  0  0
   -0.1067   -4.0661   -0.2684 H   0  0  0  0  0  0  0  0  0  0  0  0
   -3.8130   -3.0603    2.1599 H   0  0  0  0  0  0  0  0  0  0  0  0
   -5.2422   -1.0785    2.4977 H   0  0  0  0  0  0  0  0  0  0  0  0
   -6.8402    2.4225    0.0510 H   0  0  0  0  0  0  0  0  0  0  0  0
   -5.5848    1.6095   -0.9271 H   0  0  0  0  0  0  0  0  0  0  0  0
   -6.7569    0.6372    0.0282 H   0  0  0  0  0  0  0  0  0  0  0  0
   -2.7023    1.1628   -0.1612 H   0  0  0  0  0  0  0  0  0  0  0  0
   -0.1887   -0.6942   -3.1145 H   0  0  0  0  0  0  0  0  0  0  0  0
    0.2895    0.9819   -3.0260 H   0  0  0  0  0  0  0  0  0  0  0  0
    3.0068   -2.2152   -2.1481 H   0  0  0  0  0  0  0  0  0  0  0  0
    1.5112   -2.3601   -3.1492 H   0  0  0  0  0  0  0  0  0  0  0  0
    3.6629   -0.1404   -3.4508 H   0  0  0  0  0  0  0  0  0  0  0  0
    2.1606   -0.3016   -4.4403 H   0  0  0  0  0  0  0  0  0  0  0  0
    4.4157   -0.4531   -1.2746 H   0  0  0  0  0  0  0  0  0  0  0  0
  1  2  1  0
  2  3  1  0
  3  4  1  0
  4  5  2  0
  5  6  1  0
  6  7  1  0
  7  8  1  0
  8  9  1  0
  9 10  1  0
 10 11  2  0
 11 12  1  0
 12 13  2  0
 13 14  1  0
 14 15  2  0
 15 16  1  0
 16 17  1  0
 17 18  1  0
 17 19  2  0
 17 20  2  0
 16 21  2  0
 21 22  1  0
  8 23  1  0
 23 24  1  0
 24 25  1  0
 25 26  1  0
 24 27  1  0
 27 28  1  0
 28  3  2  0
 27  6  2  0
 22  9  2  0
 26 24  1  0
 22 13  1  0
  1 29  1  0
  1 30  1  0
  1 31  1  0
  4 32  1  0
  5 33  1  0
  7 34  1  0
  7 35  1  0
 11 36  1  0
 14 37  1  0
 15 38  1  0
 18 39  1  0
 18 40  1  0
 18 41  1  0
 21 42  1  0
 23 43  1  0
 23 44  1  0
 25 45  1  0
 25 46  1  0
 26 47  1  0
 26 48  1  0
 28 49  1  0
M  END
$$$$
OCNT-2315460
     RDKit          3D

 58 61  0  0  0  0  0  0  0  0999 V2000
   -3.0077   -3.8841   -3.7180 C   0  0  0  0  0  0  0  0  0  0  0  0
   -1.8406   -3.4305   -2.9652 N   0  0  0  0  0  0  0  0  0  0  0  0
   -1.5342   -2.0083   -3.2197 C   0  0  0  0  0  0  0  0  0  0  0  0
   -1.9003   -1.2480   -1.9379 C   0  0  0  0  0  0  0  0  0  0  0  0
   -1.2812    0.1063   -1.7096 C   0  0  0  0  0  0  0  0  0  0  0  0
   -1.9318    0.8851   -0.8188 N   0  0  0  0  0  0  0  0  0  0  0  0
   -1.4185    2.0830   -0.4769 C   0  0  0  0  0  0  0  0  0  0  0  0
   -2.1050    2.8780    0.4431 N   0  0  0  0  0  0  0  0  0  0  0  0
   -1.2241    3.6389    1.3193 C   0  0  0  0  0  0  0  0  0  0  0  0
   -3.2321    2.2113    1.0910 C   0  0  0  0  0  0  0  0  0  0  0  0
   -0.2846    2.5525   -1.0219 N   0  0  0  0  0  0  0  0  0  0  0  0
    0.3303    1.7782   -1.9308 C   0  0  0  0  0  0  0  0  0  0  0  0
   -0.1247    0.5403   -2.3166 C   0  0  0  0  0  0  0  0  0  0  0  0
   -1.5413   -2.2883   -0.8706 C   0  0  0  0  0  0  0  0  0  0  0  0
   -2.0330   -3.5882   -1.5102 C   0  0  0  0  0  0  0  0  0  0  0  0
   -0.0796   -2.3603   -0.3549 C   0  0  0  0  0  0  0  0  0  0  0  0
   -0.5786   -1.8185    0.8947 N   0  0  0  0  0  0  0  0  0  0  0  0
   -0.0670   -0.9195    1.7952 C   0  0  0  0  0  0  0  0  0  0  0  0
   -0.7229   -0.4928    2.7462 O   0  0  0  0  0  0  0  0  0  0  0  0
    1.3603   -0.4997    1.5102 C   0  0  0  0  0  0  0  0  0  0  0  0
    1.9495    0.3841    2.6058 C   0  0  0  0  0  0  0  0  0  0  0  0
    3.2292    1.0332    2.1259 C   0  0  0  0  0  0  0  0  0  0  0  0
    4.4626    0.3975    2.3141 C   0  0  0  0  0  0  0  0  0  0  0  0
    5.6368    0.9675    1.8155 C   0  0  0  0  0  0  0  0  0  0  0  0
    5.5905    2.1767    1.1229 C   0  0  0  0  0  0  0  0  0  0  0  0
    4.3701    2.8196    0.9259 C   0  0  0  0  0  0  0  0  0  0  0  0
    3.2029    2.2428    1.4228 C   0  0  0  0  0  0  0  0  0  0  0  0
    1.9985    2.8520    1.2283 O   0  0  0  0  0  0  0  0  0  0  0  0
   -1.9787   -2.0762    0.5994 C   0  0  0  0  0  0  0  0  0  0  0  0
   -3.2160   -4.9395   -3.5042 H   0  0  0  0  0  0  0  0  0  0  0  0
   -3.9060   -3.2991   -3.4861 H   0  0  0  0  0  0  0  0  0  0  0  0
   -2.8183   -3.8106   -4.7933 H   0  0  0  0  0  0  0  0  0  0  0  0
   -0.4605   -1.9647   -3.4254 H   0  0  0  0  0  0  0  0  0  0  0  0
   -2.0413   -1.5927   -4.0982 H   0  0  0  0  0  0  0  0  0  0  0  0
   -2.9925   -1.1088   -1.9394 H   0  0  0  0  0  0  0  0  0  0  0  0
   -1.8154    4.2653    1.9958 H   0  0  0  0  0  0  0  0  0  0  0  0
   -0.6043    2.9825    1.9388 H   0  0  0  0  0  0  0  0  0  0  0  0
   -0.5799    4.3231    0.7547 H   0  0  0  0  0  0  0  0  0  0  0  0
   -3.7536    2.9112    1.7541 H   0  0  0  0  0  0  0  0  0  0  0  0
   -3.9741    1.8801    0.3541 H   0  0  0  0  0  0  0  0  0  0  0  0
   -2.9107    1.3564    1.6982 H   0  0  0  0  0  0  0  0  0  0  0  0
    1.2410    2.1937   -2.3494 H   0  0  0  0  0  0  0  0  0  0  0  0
    0.4314   -0.0409   -3.0374 H   0  0  0  0  0  0  0  0  0  0  0  0
   -1.4954   -4.4683   -1.1480 H   0  0  0  0  0  0  0  0  0  0  0  0
   -3.0933   -3.7293   -1.2687 H   0  0  0  0  0  0  0  0  0  0  0  0
    0.3367   -3.3645   -0.2184 H   0  0  0  0  0  0  0  0  0  0  0  0
    0.6560   -1.7447   -0.8744 H   0  0  0  0  0  0  0  0  0  0  0  0
    1.9803   -1.3961    1.3852 H   0  0  0  0  0  0  0  0  0  0  0  0
    1.3532    0.0400    0.5552 H   0  0  0  0  0  0  0  0  0  0  0  0
    1.2397    1.1558    2.9246 H   0  0  0  0  0  0  0  0  0  0  0  0
    2.1464   -0.2150    3.5040 H   0  0  0  0  0  0  0  0  0  0  0  0
    4.5147   -0.5454    2.8471 H   0  0  0  0  0  0  0  0  0  0  0  0
    6.5895    0.4694    1.9682 H   0  0  0  0  0  0  0  0  0  0  0  0
    6.5068    2.6212    0.7416 H   0  0  0  0  0  0  0  0  0  0  0  0
    4.3454    3.7690    0.3973 H   0  0  0  0  0  0  0  0  0  0  0  0
    2.0725    3.5123    0.5195 H   0  0  0  0  0  0  0  0  0  0  0  0
   -2.6469   -1.2310    0.7844 H   0  0  0  0  0  0  0  0  0  0  0  0
   -2.3501   -2.9622    1.1243 H   0  0  0  0  0  0  0  0  0  0  0  0
  1  2  1  0
  2  3  1  0
  3  4  1  0
  4  5  1  0
  5  6  2  0
  6  7  1  0
  7  8  1  0
  8  9  1  0
  8 10  1  0
  7 11  2  0
 11 12  1  0
 12 13  2  0
  4 14  1  0
 14 15  1  0
 14 16  1  0
 16 17  1  0
 17 18  1  0
 18 19  2  0
 18 20  1  0
 20 21  1  0
 21 22  1  0
 22 23  2  0
 23 24  1  0
 24 25  2  0
 25 26  1  0
 26 27  2  0
 27 28  1  0
 17 29  1  0
 15  2  1  0
 27 22  1  0
 13  5  1  0
 29 14  1  0
  1 30  1  0
  1 31  1  0
  1 32  1  0
  3 33  1  0
  3 34  1  0
  4 35  1  0
  9 36  1  0
  9 37  1  0
  9 38  1  0
 10 39  1  0
 10 40  1  0
 10 41  1  0
 12 42  1  0
 13 43  1  0
 15 44  1  0
 15 45  1  0
 16 46  1  0
 16 47  1  0
 20 48  1  0
 20 49  1  0
 21 50  1  0
 21 51  1  0
 23 52  1  0
 24 53  1  0
 25 54  1  0
 26 55  1  0
 28 56  1  0
 29 57  1  0
 29 58  1  0
M  END
$$$$
OCNT-2315461
     RDKit          3D

 44 45  0  0  0  0  0  0  0  0999 V2000
    1.3862   -1.3709   -2.1744 C   0  0  0  0  0  0  0  0  0  0  0  0
    0.7990   -1.3611   -0.7585 C   0  0  0  0  0  0  0  0  0  0  0  0
    1.3395   -0.1163    0.0072 C   0  0  0  0  0  0  0  0  0  0  0  0
    0.7417    0.9545    0.0554 O   0  0  0  0  0  0  0  0  0  0  0  0
    2.5937   -0.3471    0.5596 N   0  0  0  0  0  0  0  0  0  0  0  0
    3.4069    0.5493    1.2963 C   0  0  0  0  0  0  0  0  0  0  0  0
    3.0168    1.8496    1.6311 C   0  0  0  0  0  0  0  0  0  0  0  0
    3.8778    2.6771    2.3588 C   0  0  0  0  0  0  0  0  0  0  0  0
    3.3865    4.2767    2.7650 Cl  0  0  0  0  0  0  0  0  0  0  0  0
    5.1329    2.2256    2.7628 C   0  0  0  0  0  0  0  0  0  0  0  0
    5.5349    0.9312    2.4396 C   0  0  0  0  0  0  0  0  0  0  0  0
    4.6770    0.1005    1.7137 C   0  0  0  0  0  0  0  0  0  0  0  0
    5.2243   -1.4988    1.3331 Cl  0  0  0  0  0  0  0  0  0  0  0  0
   -0.6828   -1.4858   -0.6508 N   0  0  0  0  0  0  0  0  0  0  0  0
   -1.1223   -2.8295   -1.0537 C   0  0  0  0  0  0  0  0  0  0  0  0
   -1.4360   -0.4478   -1.3854 C   0  0  0  0  0  0  0  0  0  0  0  0
   -2.4087    0.3049   -0.4628 C   0  0  0  0  0  0  0  0  0  0  0  0
   -3.2609    1.3230   -1.2211 C   0  0  0  0  0  0  0  0  0  0  0  0
   -4.4663    1.5838   -0.3184 C   0  0  0  0  0  0  0  0  0  0  0  0
   -4.4956    0.4467    0.7005 C   0  0  0  0  0  0  0  0  0  0  0  0
   -3.4677   -0.5655    0.2118 C   0  0  0  0  0  0  0  0  0  0  0  0
   -2.9444   -1.3028    1.3030 O   0  0  0  0  0  0  0  0  0  0  0  0
    1.0676   -0.5030   -2.7603 H   0  0  0  0  0  0  0  0  0  0  0  0
    1.1103   -2.2760   -2.7224 H   0  0  0  0  0  0  0  0  0  0  0  0
    2.4809   -1.3389   -2.1350 H   0  0  0  0  0  0  0  0  0  0  0  0
    1.2140   -2.2301   -0.2280 H   0  0  0  0  0  0  0  0  0  0  0  0
    3.0035   -1.2657    0.4199 H   0  0  0  0  0  0  0  0  0  0  0  0
    2.0473    2.2449    1.3450 H   0  0  0  0  0  0  0  0  0  0  0  0
    5.7974    2.8752    3.3286 H   0  0  0  0  0  0  0  0  0  0  0  0
    6.5137    0.5773    2.7540 H   0  0  0  0  0  0  0  0  0  0  0  0
   -2.1975   -2.9561   -0.8934 H   0  0  0  0  0  0  0  0  0  0  0  0
   -0.6291   -3.5948   -0.4445 H   0  0  0  0  0  0  0  0  0  0  0  0
   -0.9159   -3.0402   -2.1072 H   0  0  0  0  0  0  0  0  0  0  0  0
   -0.7743    0.2966   -1.8420 H   0  0  0  0  0  0  0  0  0  0  0  0
   -1.9869   -0.8866   -2.2284 H   0  0  0  0  0  0  0  0  0  0  0  0
   -1.8293    0.8248    0.3124 H   0  0  0  0  0  0  0  0  0  0  0  0
   -2.7070    2.2421   -1.4373 H   0  0  0  0  0  0  0  0  0  0  0  0
   -3.6050    0.9104   -2.1777 H   0  0  0  0  0  0  0  0  0  0  0  0
   -5.3889    1.6178   -0.9073 H   0  0  0  0  0  0  0  0  0  0  0  0
   -4.3695    2.5473    0.1945 H   0  0  0  0  0  0  0  0  0  0  0  0
   -5.4907   -0.0006    0.7886 H   0  0  0  0  0  0  0  0  0  0  0  0
   -4.2316    0.8229    1.6964 H   0  0  0  0  0  0  0  0  0  0  0  0
   -3.9267   -1.2611   -0.5003 H   0  0  0  0  0  0  0  0  0  0  0  0
   -2.0149   -1.5036    1.0684 H   0  0  0  0  0  0  0  0  0  0  0  0
  1  2  1  0
  2  3  1  0
  3  4  2  0
  3  5  1  0
  5  6  1  0
  6  7  1  0
  7  8  2  0
  8  9  1  0
  8 10  1  0
 10 11  2  0
 11 12  1  0
 12 13  1  0
  2 14  1  0
 14 15  1  0
 14 16  1  0
 16 17  1  0
 17 18  1  0
 18 19  1  0
 19 20  1  0
 20 21  1  0
 21 22  1  0
 12  6  2  0
 21 17  1  0
  1 23  1  0
  1 24  1  0
  1 25  1  0
  2 26  1  0
  5 27  1  0
  7 28  1  0
 10 29  1  0
 11 30  1  0
 15 31  1  0
 15 32  1  0
 15 33  1  0
 16 34  1  0
 16 35  1  0
 17 36  1  0
 18 37  1  0
 18 38  1  0
 19 39  1  0
 19 40  1  0
 20 41  1  0
 20 42  1  0
 21 43  1  0
 22 44  1  0
M  END
$$$$
OCNT-2315468
     RDKit          3D

 46 50  0  0  0  0  0  0  0  0999 V2000
    3.6603   -0.6225    2.3702 C   0  0  0  0  0  0  0  0  0  0  0  0
    2.4198   -0.4762    1.7507 C   0  0  0  0  0  0  0  0  0  0  0  0
    2.3324    0.0127    0.4414 C   0  0  0  0  0  0  0  0  0  0  0  0
    1.0280    0.1620   -0.1980 C   0  0  0  0  0  0  0  0  0  0  0  0
    0.8510    0.6217   -1.4477 N   0  0  0  0  0  0  0  0  0  0  0  0
   -0.5288    0.5896   -1.6233 O   0  0  0  0  0  0  0  0  0  0  0  0
   -1.0599    0.1134   -0.4593 C   0  0  0  0  0  0  0  0  0  0  0  0
   -2.5527   -0.0202   -0.3972 C   0  0  0  0  0  0  0  0  0  0  0  0
   -3.2053    1.3621   -0.6747 C   0  0  0  0  0  0  0  0  0  0  0  0
   -4.7189    1.3553   -0.4423 C   0  0  0  0  0  0  0  0  0  0  0  0
   -5.0951    0.6932    0.8871 C   0  0  0  0  0  0  0  0  0  0  0  0
   -4.4473   -0.6114    1.1002 N   0  0  0  0  0  0  0  0  0  0  0  0
   -4.9407   -1.6363    0.1630 C   0  0  0  0  0  0  0  0  0  0  0  0
   -3.8877   -2.1813   -0.8076 C   0  0  0  0  0  0  0  0  0  0  0  0
   -3.0345   -1.0762   -1.4355 C   0  0  0  0  0  0  0  0  0  0  0  0
   -2.9835   -0.4542    1.0240 C   0  0  0  0  0  0  0  0  0  0  0  0
   -0.1481   -0.1643    0.4443 N   0  0  0  0  0  0  0  0  0  0  0  0
    3.5166    0.3535   -0.2377 C   0  0  0  0  0  0  0  0  0  0  0  0
    4.7721    0.2097    0.3782 C   0  0  0  0  0  0  0  0  0  0  0  0
    5.9655    0.5588   -0.3213 N   0  0  0  0  0  0  0  0  0  0  0  0
    6.0737    1.0521   -1.6054 C   0  0  0  0  0  0  0  0  0  0  0  0
    7.4163    1.2350   -1.8373 C   0  0  0  0  0  0  0  0  0  0  0  0
    8.1492    0.8743   -0.7461 N   0  0  0  0  0  0  0  0  0  0  0  0
    7.2634    0.4761    0.1410 C   0  0  0  0  0  0  0  0  0  0  0  0
    4.8318   -0.2822    1.6900 C   0  0  0  0  0  0  0  0  0  0  0  0
    3.7137   -1.0035    3.3877 H   0  0  0  0  0  0  0  0  0  0  0  0
    1.5189   -0.7475    2.2989 H   0  0  0  0  0  0  0  0  0  0  0  0
   -2.7572    2.1175   -0.0138 H   0  0  0  0  0  0  0  0  0  0  0  0
   -2.9979    1.6956   -1.6997 H   0  0  0  0  0  0  0  0  0  0  0  0
   -5.2163    0.8386   -1.2712 H   0  0  0  0  0  0  0  0  0  0  0  0
   -5.0936    2.3855   -0.4563 H   0  0  0  0  0  0  0  0  0  0  0  0
   -6.1849    0.5898    0.9572 H   0  0  0  0  0  0  0  0  0  0  0  0
   -4.8128    1.3616    1.7111 H   0  0  0  0  0  0  0  0  0  0  0  0
   -5.8045   -1.2783   -0.4113 H   0  0  0  0  0  0  0  0  0  0  0  0
   -5.3200   -2.4754    0.7590 H   0  0  0  0  0  0  0  0  0  0  0  0
   -3.2310   -2.8830   -0.2768 H   0  0  0  0  0  0  0  0  0  0  0  0
   -4.3779   -2.7633   -1.5968 H   0  0  0  0  0  0  0  0  0  0  0  0
   -2.1864   -1.5568   -1.9408 H   0  0  0  0  0  0  0  0  0  0  0  0
   -3.6105   -0.5950   -2.2357 H   0  0  0  0  0  0  0  0  0  0  0  0
   -2.6565    0.2817    1.7725 H   0  0  0  0  0  0  0  0  0  0  0  0
   -2.4957   -1.3912    1.3259 H   0  0  0  0  0  0  0  0  0  0  0  0
    3.4303    0.7313   -1.2529 H   0  0  0  0  0  0  0  0  0  0  0  0
    5.2258    1.2346   -2.2468 H   0  0  0  0  0  0  0  0  0  0  0  0
    7.8889    1.6086   -2.7368 H   0  0  0  0  0  0  0  0  0  0  0  0
    7.5208    0.1211    1.1282 H   0  0  0  0  0  0  0  0  0  0  0  0
    5.7693   -0.4165    2.2211 H   0  0  0  0  0  0  0  0  0  0  0  0
  1  2  2  0
  2  3  1  0
  3  4  1  0
  4  5  2  0
  5  6  1  0
  6  7  1  0
  7  8  1  0
  8  9  1  0
  9 10  1  0
 10 11  1  0
 11 12  1  0
 12 13  1  0
 13 14  1  0
 14 15  1  0
 12 16  1  0
  7 17  2  0
  3 18  2  0
 18 19  1  0
 19 20  1  0
 20 21  1  0
 21 22  2  0
 22 23  1  0
 23 24  2  0
 19 25  2  0
 25  1  1  0
 17  4  1  0
 24 20  1  0
 15  8  1  0
 16  8  1  0
  1 26  1  0
  2 27  1  0
  9 28  1  0
  9 29  1  0
 10 30  1  0
 10 31  1  0
 11 32  1  0
 11 33  1  0
 13 34  1  0
 13 35  1  0
 14 36  1  0
 14 37  1  0
 15 38  1  0
 15 39  1  0
 16 40  1  0
 16 41  1  0
 18 42  1  0
 21 43  1  0
 22 44  1  0
 24 45  1  0
 25 46  1  0
M  END
$$$$
OCNT-2315469
     RDKit          3D

 63 65  0  0  0  0  0  0  0  0999 V2000
    5.9788   -1.4036   -1.2779 C   0  0  0  0  0  0  0  0  0  0  0  0
    6.0153   -0.3459   -0.2008 C   0  0  0  0  0  0  0  0  0  0  0  0
    4.9025   -0.1200    0.6472 C   0  0  0  0  0  0  0  0  0  0  0  0
    3.7217   -0.8798    0.4472 N   0  0  0  0  0  0  0  0  0  0  0  0
    2.6091   -0.9662    1.2734 C   0  0  0  0  0  0  0  0  0  0  0  0
    2.4805   -0.3651    2.3425 O   0  0  0  0  0  0  0  0  0  0  0  0
    1.4499   -1.8696    0.7442 C   0  0  0  0  0  0  0  0  0  0  0  0
    1.8104   -2.8652   -0.3623 C   0  0  0  0  0  0  0  0  0  0  0  0
    0.2646   -1.0788    0.3255 N   0  0  0  0  0  0  0  0  0  0  0  0
    0.5574    0.0750   -0.5240 C   0  0  0  0  0  0  0  0  0  0  0  0
   -0.6206    0.4527   -1.4376 C   0  0  0  0  0  0  0  0  0  0  0  0
   -2.0053   -0.0497   -1.0072 C   0  0  0  0  0  0  0  0  0  0  0  0
   -2.5391    0.4435    0.2702 N   0  0  0  0  0  0  0  0  0  0  0  0
   -3.1714    1.7725    0.1439 C   0  0  0  0  0  0  0  0  0  0  0  0
   -4.4254    1.7652   -0.6839 C   0  0  0  0  0  0  0  0  0  0  0  0
   -4.5893    2.4346   -1.8147 N   0  0  0  0  0  0  0  0  0  0  0  0
   -5.8604    2.1607   -2.2348 C   0  0  0  0  0  0  0  0  0  0  0  0
   -6.4910    1.3161   -1.3557 C   0  0  0  0  0  0  0  0  0  0  0  0
   -5.5720    1.0640   -0.3681 N   0  0  0  0  0  0  0  0  0  0  0  0
   -5.7872    0.1866    0.7779 C   0  0  0  0  0  0  0  0  0  0  0  0
   -6.9630    0.6526    1.6386 C   0  0  0  0  0  0  0  0  0  0  0  0
   -5.9602   -1.2678    0.3390 C   0  0  0  0  0  0  0  0  0  0  0  0
   -1.5478    0.4739    1.3575 C   0  0  0  0  0  0  0  0  0  0  0  0
   -0.5993   -0.7471    1.4841 C   0  0  0  0  0  0  0  0  0  0  0  0
    4.9922    0.8601    1.6485 C   0  0  0  0  0  0  0  0  0  0  0  0
    6.1518    1.6202    1.8322 C   0  0  0  0  0  0  0  0  0  0  0  0
    7.2467    1.4204    1.0079 C   0  0  0  0  0  0  0  0  0  0  0  0
    7.1618    0.4587   -0.0048 C   0  0  0  0  0  0  0  0  0  0  0  0
    8.3235    0.3274   -0.8690 N   0  0  0  0  0  0  0  0  0  0  0  0
    8.1762    0.6193   -2.0629 O   0  0  0  0  0  0  0  0  0  0  0  0
    9.3702   -0.0655   -0.3406 O   0  0  0  0  0  0  0  0  0  0  0  0
    5.5374   -2.3310   -0.8961 H   0  0  0  0  0  0  0  0  0  0  0  0
    6.9745   -1.6882   -1.6299 H   0  0  0  0  0  0  0  0  0  0  0  0
    5.3968   -1.0455   -2.1330 H   0  0  0  0  0  0  0  0  0  0  0  0
    3.7097   -1.4595   -0.3784 H   0  0  0  0  0  0  0  0  0  0  0  0
    1.1733   -2.5034    1.6000 H   0  0  0  0  0  0  0  0  0  0  0  0
    2.0367   -2.3744   -1.3140 H   0  0  0  0  0  0  0  0  0  0  0  0
    2.6821   -3.4638   -0.0777 H   0  0  0  0  0  0  0  0  0  0  0  0
    0.9819   -3.5590   -0.5408 H   0  0  0  0  0  0  0  0  0  0  0  0
    1.4058   -0.1364   -1.1883 H   0  0  0  0  0  0  0  0  0  0  0  0
    0.8733    0.9406    0.0730 H   0  0  0  0  0  0  0  0  0  0  0  0
   -0.4231    0.0323   -2.4328 H   0  0  0  0  0  0  0  0  0  0  0  0
   -0.6380    1.5419   -1.5670 H   0  0  0  0  0  0  0  0  0  0  0  0
   -1.9894   -1.1472   -0.9623 H   0  0  0  0  0  0  0  0  0  0  0  0
   -2.7106    0.1555   -1.8216 H   0  0  0  0  0  0  0  0  0  0  0  0
   -2.4665    2.5011   -0.2754 H   0  0  0  0  0  0  0  0  0  0  0  0
   -3.4479    2.1489    1.1376 H   0  0  0  0  0  0  0  0  0  0  0  0
   -6.2570    2.5835   -3.1481 H   0  0  0  0  0  0  0  0  0  0  0  0
   -7.4810    0.8838   -1.3583 H   0  0  0  0  0  0  0  0  0  0  0  0
   -4.8953    0.2394    1.4111 H   0  0  0  0  0  0  0  0  0  0  0  0
   -7.0461    0.0346    2.5399 H   0  0  0  0  0  0  0  0  0  0  0  0
   -7.9140    0.5871    1.0994 H   0  0  0  0  0  0  0  0  0  0  0  0
   -6.8263    1.6932    1.9534 H   0  0  0  0  0  0  0  0  0  0  0  0
   -6.8675   -1.4034   -0.2600 H   0  0  0  0  0  0  0  0  0  0  0  0
   -5.1081   -1.5956   -0.2668 H   0  0  0  0  0  0  0  0  0  0  0  0
   -6.0318   -1.9296    1.2073 H   0  0  0  0  0  0  0  0  0  0  0  0
   -0.9413    1.3884    1.2990 H   0  0  0  0  0  0  0  0  0  0  0  0
   -2.0963    0.5462    2.3069 H   0  0  0  0  0  0  0  0  0  0  0  0
    0.0094   -0.5568    2.3756 H   0  0  0  0  0  0  0  0  0  0  0  0
   -1.2050   -1.6347    1.7098 H   0  0  0  0  0  0  0  0  0  0  0  0
    4.1560    1.0817    2.3057 H   0  0  0  0  0  0  0  0  0  0  0  0
    6.1821    2.3738    2.6133 H   0  0  0  0  0  0  0  0  0  0  0  0
    8.1461    2.0176    1.1436 H   0  0  0  0  0  0  0  0  0  0  0  0
  1  2  1  0
  2  3  2  0
  3  4  1  0
  4  5  1  0
  5  6  2  0
  5  7  1  0
  7  8  1  0
  7  9  1  0
  9 10  1  0
 10 11  1  0
 11 12  1  0
 12 13  1  0
 13 14  1  0
 14 15  1  0
 15 16  2  0
 16 17  1  0
 17 18  2  0
 18 19  1  0
 19 20  1  0
 20 21  1  0
 20 22  1  0
 13 23  1  0
 23 24  1  0
  3 25  1  0
 25 26  2  0
 26 27  1  0
 27 28  2  0
 28 29  1  0
 29 30  2  0
 29 31  1  0
 28  2  1  0
 24  9  1  0
 19 15  1  0
  1 32  1  0
  1 33  1  0
  1 34  1  0
  4 35  1  0
  7 36  1  0
  8 37  1  0
  8 38  1  0
  8 39  1  0
 10 40  1  0
 10 41  1  0
 11 42  1  0
 11 43  1  0
 12 44  1  0
 12 45  1  0
 14 46  1  0
 14 47  1  0
 17 48  1  0
 18 49  1  0
 20 50  1  0
 21 51  1  0
 21 52  1  0
 21 53  1  0
 22 54  1  0
 22 55  1  0
 22 56  1  0
 23 57  1  0
 23 58  1  0
 24 59  1  0
 24 60  1  0
 25 61  1  0
 26 62  1  0
 27 63  1  0
M  CHG  2  29   1  31  -1
M  END
$$$$
OCNT-2315488
     RDKit          3D

  0  0  0  0  0  0  0  0  0  0999 V3000
M  V30 BEGIN CTAB
M  V30 COUNTS 57 59 0 0 0
M  V30 BEGIN ATOM
M  V30 1 C 8.052599 0.093752 0.279543 0
M  V30 2 N 6.931628 -0.497635 -0.456310 0
M  V30 3 C 6.921191 -1.948153 -0.256494 0
M  V30 4 C 5.662860 0.127360 -0.023712 0
M  V30 5 C 4.457815 -0.223437 -0.933151 0
M  V30 6 N 3.222500 0.519848 -0.603196 0
M  V30 7 C 2.758770 0.242425 0.765391 0
M  V30 8 C 1.281794 0.574265 0.953022 0
M  V30 9 C 0.408133 -0.310508 0.053381 0
M  V30 10 N -0.864392 0.344055 -0.236922 0
M  V30 11 C -1.854189 0.403441 0.709061 0
M  V30 12 O -1.808110 -0.132549 1.807146 0
M  V30 13 N -2.924795 1.135252 0.255950 0
M  V30 14 C -4.120873 1.213807 1.072949 0 CFG=1
M  V30 15 C -5.105365 2.267917 0.577890 0
M  V30 16 C -6.435841 1.894001 1.227322 0
M  V30 17 C -6.314300 0.436297 1.687108 0
M  V30 18 C -4.965535 -0.075882 1.162521 0 CFG=1
M  V30 19 N -5.056256 -0.818333 -0.085886 0
M  V30 20 C -4.308937 -1.926502 -0.393099 0
M  V30 21 C -4.682594 -2.273154 -1.668878 0
M  V30 22 N -5.636132 -1.412765 -2.143133 0
M  V30 23 C -5.851983 -0.560783 -1.166212 0
M  V30 24 C 1.128419 -0.705541 -1.241807 0
M  V30 25 C 2.184679 0.326055 -1.627737 0
M  V30 26 H 8.111990 1.171657 0.091399 0
M  V30 27 H 9.003795 -0.333006 -0.058519 0
M  V30 28 H 7.967416 -0.065003 1.360769 0
M  V30 29 H 6.165865 -2.429874 -0.884744 0
M  V30 30 H 6.731576 -2.220674 0.788074 0
M  V30 31 H 7.882130 -2.383824 -0.554189 0
M  V30 32 H 5.780616 1.219033 -0.054129 0
M  V30 33 H 5.450518 -0.142674 1.018459 0
M  V30 34 H 4.254118 -1.300356 -0.902545 0
M  V30 35 H 4.751113 0.020515 -1.962851 0
M  V30 36 H 3.344283 0.843243 1.470396 0
M  V30 37 H 2.913615 -0.812636 1.028369 0
M  V30 38 H 1.116022 1.637805 0.733979 0
M  V30 39 H 0.996417 0.432492 2.002359 0
M  V30 40 H 0.169926 -1.235409 0.595006 0
M  V30 41 H -0.831253 1.146662 -0.849669 0
M  V30 42 H -3.060678 1.055520 -0.744506 0
M  V30 43 H -3.807541 1.488332 2.090332 0
M  V30 44 H -4.790553 3.281308 0.848244 0
M  V30 45 H -5.198070 2.245133 -0.514292 0
M  V30 46 H -6.641215 2.540750 2.087887 0
M  V30 47 H -7.262844 2.023969 0.521231 0
M  V30 48 H -6.306772 0.416812 2.784285 0
M  V30 49 H -7.168763 -0.167003 1.363072 0
M  V30 50 H -4.531046 -0.769993 1.892995 0
M  V30 51 H -3.588393 -2.351734 0.292935 0
M  V30 52 H -4.313482 -3.093788 -2.270135 0
M  V30 53 H -6.566482 0.250388 -1.204416 0
M  V30 54 H 1.621234 -1.676262 -1.098883 0
M  V30 55 H 0.415242 -0.839407 -2.063970 0
M  V30 56 H 1.690161 1.292771 -1.788509 0
M  V30 57 H 2.619969 0.062017 -2.599314 0
M  V30 END ATOM
M  V30 BEGIN BOND
M  V30 1 1 1 2
M  V30 2 1 2 3
M  V30 3 1 2 4
M  V30 4 1 4 5
M  V30 5 1 5 6
M  V30 6 1 6 7
M  V30 7 1 7 8
M  V30 8 1 8 9
M  V30 9 1 9 10
M  V30 10 1 10 11
M  V30 11 2 11 12
M  V30 12 1 11 13
M  V30 13 1 13 14
M  V30 14 1 14 15
M  V30 15 1 15 16
M  V30 16 1 16 17
M  V30 17 1 17 18
M  V30 18 1 18 19
M  V30 19 1 19 20
M  V30 20 2 20 21
M  V30 21 1 21 22
M  V30 22 2 22 23
M  V30 23 1 9 24
M  V30 24 1 24 25
M  V30 25 1 25 6
M  V30 26 1 18 14
M  V30 27 1 23 19
M  V30 28 1 1 26
M  V30 29 1 1 27
M  V30 30 1 1 28
M  V30 31 1 3 29
M  V30 32 1 3 30
M  V30 33 1 3 31
M  V30 34 1 4 32
M  V30 35 1 4 33
M  V30 36 1 5 34
M  V30 37 1 5 35
M  V30 38 1 7 36
M  V30 39 1 7 37
M  V30 40 1 8 38
M  V30 41 1 8 39
M  V30 42 1 9 40
M  V30 43 1 10 41
M  V30 44 1 13 42
M  V30 45 1 14 43 CFG=1
M  V30 46 1 15 44
M  V30 47 1 15 45
M  V30 48 1 16 46
M  V30 49 1 16 47
M  V30 50 1 17 48
M  V30 51 1 17 49
M  V30 52 1 18 50 CFG=1
M  V30 53 1 20 51
M  V30 54 1 21 52
M  V30 55 1 23 53
M  V30 56 1 24 54
M  V30 57 1 24 55
M  V30 58 1 25 56
M  V30 59 1 25 57
M  V30 END BOND
M  V30 BEGIN COLLECTION
M  V30 MDLV30/STERAC1 ATOMS=(2 14 18)
M  V30 END COLLECTION
M  V30 END CTAB
M  END
>  <_CXSMILES_Data>  (978) 
|&1:13,17|

$$$$
OCNT-2315490
     RDKit          3D

 41 44  0  0  0  0  0  0  0  0999 V2000
   -0.0995   -3.4052    0.0381 O   0  0  0  0  0  0  0  0  0  0  0  0
   -0.3645   -2.2392    0.3083 C   0  0  0  0  0  0  0  0  0  0  0  0
    0.5233   -1.3704    0.9079 N   0  0  0  0  0  0  0  0  0  0  0  0
    1.9214   -1.7421    1.2128 C   0  0  0  0  0  0  0  0  0  0  0  0
    2.7990   -0.5938    1.7460 C   0  0  0  0  0  0  0  0  0  0  0  0
    3.2393   -0.3928    0.3937 N   0  0  0  0  0  0  0  0  0  0  0  0
    4.4057    0.3032    0.0279 C   0  0  0  0  0  0  0  0  0  0  0  0
    4.9456    0.1328   -1.2341 C   0  0  0  0  0  0  0  0  0  0  0  0
    6.0784    0.8564   -1.5287 C   0  0  0  0  0  0  0  0  0  0  0  0
    6.6631    1.7008   -0.6648 N   0  0  0  0  0  0  0  0  0  0  0  0
    6.0608    1.8042    0.5271 C   0  0  0  0  0  0  0  0  0  0  0  0
    4.9586    1.1486    0.9183 N   0  0  0  0  0  0  0  0  0  0  0  0
    2.8745   -1.7261    0.0014 C   0  0  0  0  0  0  0  0  0  0  0  0
   -1.6966   -1.6322   -0.0081 C   0  0  0  0  0  0  0  0  0  0  0  0
   -2.6922   -2.4060   -0.5844 C   0  0  0  0  0  0  0  0  0  0  0  0
   -3.9127   -1.7980   -0.8693 C   0  0  0  0  0  0  0  0  0  0  0  0
   -4.1029   -0.4409   -0.5995 C   0  0  0  0  0  0  0  0  0  0  0  0
   -5.3628    0.1371   -0.8116 N   0  0  0  0  0  0  0  0  0  0  0  0
   -5.4107    1.5947   -0.7806 C   0  0  0  0  0  0  0  0  0  0  0  0
   -4.6660    2.1200    0.4392 C   0  0  0  0  0  0  0  0  0  0  0  0
   -3.2007    1.7053    0.3640 C   0  0  0  0  0  0  0  0  0  0  0  0
   -3.0461    0.2451    0.0247 C   0  0  0  0  0  0  0  0  0  0  0  0
   -1.8413   -0.3147    0.3040 N   0  0  0  0  0  0  0  0  0  0  0  0
    0.1972   -0.4088    0.9914 H   0  0  0  0  0  0  0  0  0  0  0  0
    1.9670   -2.6532    1.8192 H   0  0  0  0  0  0  0  0  0  0  0  0
    3.6053   -0.9104    2.4168 H   0  0  0  0  0  0  0  0  0  0  0  0
    2.2766    0.2717    2.1616 H   0  0  0  0  0  0  0  0  0  0  0  0
    4.5007   -0.5274   -1.9651 H   0  0  0  0  0  0  0  0  0  0  0  0
    6.5584    0.7752   -2.4992 H   0  0  0  0  0  0  0  0  0  0  0  0
    6.5065    2.4832    1.2453 H   0  0  0  0  0  0  0  0  0  0  0  0
    2.4126   -1.7726   -0.9881 H   0  0  0  0  0  0  0  0  0  0  0  0
    3.7087   -2.4331    0.0671 H   0  0  0  0  0  0  0  0  0  0  0  0
   -2.5283   -3.4566   -0.7990 H   0  0  0  0  0  0  0  0  0  0  0  0
   -4.7157   -2.3918   -1.2972 H   0  0  0  0  0  0  0  0  0  0  0  0
   -5.8579   -0.2748   -1.5991 H   0  0  0  0  0  0  0  0  0  0  0  0
   -4.9856    2.0037   -1.7054 H   0  0  0  0  0  0  0  0  0  0  0  0
   -6.4586    1.9097   -0.7361 H   0  0  0  0  0  0  0  0  0  0  0  0
   -4.7432    3.2114    0.4941 H   0  0  0  0  0  0  0  0  0  0  0  0
   -5.1196    1.7139    1.3527 H   0  0  0  0  0  0  0  0  0  0  0  0
   -2.7083    1.9195    1.3193 H   0  0  0  0  0  0  0  0  0  0  0  0
   -2.6899    2.2897   -0.4108 H   0  0  0  0  0  0  0  0  0  0  0  0
  1  2  2  0
  2  3  1  0
  3  4  1  0
  4  5  1  0
  5  6  1  0
  6  7  1  0
  7  8  1  0
  8  9  2  0
  9 10  1  0
 10 11  2  0
 11 12  1  0
  6 13  1  0
  2 14  1  0
 14 15  1  0
 15 16  2  0
 16 17  1  0
 17 18  1  0
 18 19  1  0
 19 20  1  0
 20 21  1  0
 21 22  1  0
 22 23  1  0
 13  4  1  0
 23 14  2  0
 12  7  2  0
 22 17  2  0
  3 24  1  0
  4 25  1  0
  5 26  1  0
  5 27  1  0
  8 28  1  0
  9 29  1  0
 11 30  1  0
 13 31  1  0
 13 32  1  0
 15 33  1  0
 16 34  1  0
 18 35  1  0
 19 36  1  0
 19 37  1  0
 20 38  1  0
 20 39  1  0
 21 40  1  0
 21 41  1  0
M  END
$$$$
OCNT-2315502
     RDKit          3D

 50 52  0  0  0  0  0  0  0  0999 V2000
    8.7119   -0.0838    0.7820 C   0  0  0  0  0  0  0  0  0  0  0  0
    7.3484   -0.5717    0.3258 C   0  0  0  0  0  0  0  0  0  0  0  0
    6.3788    0.3984    0.7252 O   0  0  0  0  0  0  0  0  0  0  0  0
    5.0879    0.0690    0.3565 C   0  0  0  0  0  0  0  0  0  0  0  0
    4.1113    0.9764    0.6966 C   0  0  0  0  0  0  0  0  0  0  0  0
    2.8146    0.6607    0.3431 C   0  0  0  0  0  0  0  0  0  0  0  0
    1.8089    1.5828    0.6556 N   0  0  0  0  0  0  0  0  0  0  0  0
    0.4046    1.3239    0.2994 C   0  0  0  0  0  0  0  0  0  0  0  0
   -0.1959    0.1119    1.0226 C   0  0  0  0  0  0  0  0  0  0  0  0
   -1.2408   -0.6077    0.1648 C   0  0  0  0  0  0  0  0  0  0  0  0
   -2.0905    0.3792   -0.5059 N   0  0  0  0  0  0  0  0  0  0  0  0
   -3.3004   -0.2020   -1.1081 C   0  0  0  0  0  0  0  0  0  0  0  0
   -4.3354   -0.6756   -0.0786 C   0  0  0  0  0  0  0  0  0  0  0  0
   -5.6411   -1.1322   -0.7296 C   0  0  0  0  0  0  0  0  0  0  0  0
   -6.6342   -1.1555    0.4260 C   0  0  0  0  0  0  0  0  0  0  0  0
   -6.1380   -0.1114    1.4267 C   0  0  0  0  0  0  0  0  0  0  0  0
   -4.8181    0.4190    0.8728 C   0  0  0  0  0  0  0  0  0  0  0  0
   -1.3321    1.1449   -1.5142 C   0  0  0  0  0  0  0  0  0  0  0  0
    0.1630    1.2928   -1.2077 C   0  0  0  0  0  0  0  0  0  0  0  0
    2.5362   -0.4712   -0.3201 N   0  0  0  0  0  0  0  0  0  0  0  0
    3.5646   -1.2848   -0.6032 C   0  0  0  0  0  0  0  0  0  0  0  0
    4.8473   -1.0794   -0.2913 N   0  0  0  0  0  0  0  0  0  0  0  0
    9.4945   -0.7937    0.4999 H   0  0  0  0  0  0  0  0  0  0  0  0
    8.9412    0.8905    0.3377 H   0  0  0  0  0  0  0  0  0  0  0  0
    8.7300    0.0492    1.8688 H   0  0  0  0  0  0  0  0  0  0  0  0
    7.3544   -0.6803   -0.7655 H   0  0  0  0  0  0  0  0  0  0  0  0
    7.1387   -1.5390    0.7979 H   0  0  0  0  0  0  0  0  0  0  0  0
    4.3590    1.8967    1.2066 H   0  0  0  0  0  0  0  0  0  0  0  0
    1.8945    1.8607    1.6297 H   0  0  0  0  0  0  0  0  0  0  0  0
   -0.1408    2.2044    0.6693 H   0  0  0  0  0  0  0  0  0  0  0  0
   -0.6658    0.4630    1.9515 H   0  0  0  0  0  0  0  0  0  0  0  0
    0.5609   -0.6137    1.3385 H   0  0  0  0  0  0  0  0  0  0  0  0
   -0.7553   -1.2693   -0.5644 H   0  0  0  0  0  0  0  0  0  0  0  0
   -1.8184   -1.2512    0.8361 H   0  0  0  0  0  0  0  0  0  0  0  0
   -3.0367   -1.0325   -1.7761 H   0  0  0  0  0  0  0  0  0  0  0  0
   -3.7814    0.5610   -1.7355 H   0  0  0  0  0  0  0  0  0  0  0  0
   -3.9362   -1.5131    0.5073 H   0  0  0  0  0  0  0  0  0  0  0  0
   -5.9738   -0.4139   -1.4890 H   0  0  0  0  0  0  0  0  0  0  0  0
   -5.5476   -2.1112   -1.2096 H   0  0  0  0  0  0  0  0  0  0  0  0
   -6.6418   -2.1448    0.8983 H   0  0  0  0  0  0  0  0  0  0  0  0
   -7.6533   -0.9459    0.0862 H   0  0  0  0  0  0  0  0  0  0  0  0
   -5.9852   -0.5773    2.4069 H   0  0  0  0  0  0  0  0  0  0  0  0
   -6.8624    0.6988    1.5590 H   0  0  0  0  0  0  0  0  0  0  0  0
   -4.9972    1.3553    0.3298 H   0  0  0  0  0  0  0  0  0  0  0  0
   -4.0985    0.6273    1.6708 H   0  0  0  0  0  0  0  0  0  0  0  0
   -1.7820    2.1429   -1.5828 H   0  0  0  0  0  0  0  0  0  0  0  0
   -1.4205    0.6894   -2.5095 H   0  0  0  0  0  0  0  0  0  0  0  0
    0.5491    2.2045   -1.6795 H   0  0  0  0  0  0  0  0  0  0  0  0
    0.6946    0.4571   -1.6754 H   0  0  0  0  0  0  0  0  0  0  0  0
    3.3292   -2.1987   -1.1373 H   0  0  0  0  0  0  0  0  0  0  0  0
  1  2  1  0
  2  3  1  0
  3  4  1  0
  4  5  2  0
  5  6  1  0
  6  7  1  0
  7  8  1  0
  8  9  1  0
  9 10  1  0
 10 11  1  0
 11 12  1  0
 12 13  1  0
 13 14  1  0
 14 15  1  0
 15 16  1  0
 16 17  1  0
 11 18  1  0
 18 19  1  0
  6 20  2  0
 20 21  1  0
 21 22  2  0
 22  4  1  0
 19  8  1  0
 17 13  1  0
  1 23  1  0
  1 24  1  0
  1 25  1  0
  2 26  1  0
  2 27  1  0
  5 28  1  0
  7 29  1  0
  8 30  1  0
  9 31  1  0
  9 32  1  0
 10 33  1  0
 10 34  1  0
 12 35  1  0
 12 36  1  0
 13 37  1  0
 14 38  1  0
 14 39  1  0
 15 40  1  0
 15 41  1  0
 16 42  1  0
 16 43  1  0
 17 44  1  0
 17 45  1  0
 18 46  1  0
 18 47  1  0
 19 48  1  0
 19 49  1  0
 21 50  1  0
M  END
$$$$
OCNT-2315505
     RDKit          3D

 50 54  0  0  0  0  0  0  0  0999 V2000
    7.6890   -2.0486   -1.4551 F   0  0  0  0  0  0  0  0  0  0  0  0
    6.7140   -1.3194   -0.8970 C   0  0  0  0  0  0  0  0  0  0  0  0
    6.4047   -1.5025    0.4453 C   0  0  0  0  0  0  0  0  0  0  0  0
    5.3880   -0.7415    1.0258 C   0  0  0  0  0  0  0  0  0  0  0  0
    4.6769    0.1956    0.2603 C   0  0  0  0  0  0  0  0  0  0  0  0
    3.6132    0.9840    0.8785 C   0  0  0  0  0  0  0  0  0  0  0  0
    3.8263    1.6071    2.0491 N   0  0  0  0  0  0  0  0  0  0  0  0
    2.6771    2.2443    2.3050 N   0  0  0  0  0  0  0  0  0  0  0  0
    1.7247    2.0501    1.3574 C   0  0  0  0  0  0  0  0  0  0  0  0
    2.2773    1.2062    0.4124 C   0  0  0  0  0  0  0  0  0  0  0  0
    1.6213    0.6595   -0.8164 C   0  0  0  0  0  0  0  0  0  0  0  0
    0.2611    0.1887   -0.5170 N   0  0  0  0  0  0  0  0  0  0  0  0
    0.2420   -1.0468    0.2656 C   0  0  0  0  0  0  0  0  0  0  0  0
   -1.1765   -1.3145    0.7821 C   0  0  0  0  0  0  0  0  0  0  0  0
   -2.2656   -1.1341   -0.2939 C   0  0  0  0  0  0  0  0  0  0  0  0
   -3.2434   -0.0226    0.0171 C   0  0  0  0  0  0  0  0  0  0  0  0
   -2.9449    1.2771    0.3972 C   0  0  0  0  0  0  0  0  0  0  0  0
   -4.1173    1.9622    0.5733 N   0  0  0  0  0  0  0  0  0  0  0  0
   -5.1767    1.1425    0.3108 C   0  0  0  0  0  0  0  0  0  0  0  0
   -6.4661    1.5207    0.3897 N   0  0  0  0  0  0  0  0  0  0  0  0
   -7.3241    0.5233    0.0781 C   0  0  0  0  0  0  0  0  0  0  0  0
   -6.9678   -0.7672   -0.2909 C   0  0  0  0  0  0  0  0  0  0  0  0
   -5.6147   -1.1032   -0.3566 C   0  0  0  0  0  0  0  0  0  0  0  0
   -4.6747   -0.1062   -0.0409 C   0  0  0  0  0  0  0  0  0  0  0  0
   -1.6493   -0.9824   -1.6889 C   0  0  0  0  0  0  0  0  0  0  0  0
   -0.5340    0.0694   -1.7485 C   0  0  0  0  0  0  0  0  0  0  0  0
    5.0129    0.3754   -1.0900 C   0  0  0  0  0  0  0  0  0  0  0  0
    6.0306   -0.3865   -1.6691 C   0  0  0  0  0  0  0  0  0  0  0  0
    6.9570   -2.2286    1.0327 H   0  0  0  0  0  0  0  0  0  0  0  0
    5.1500   -0.8748    2.0795 H   0  0  0  0  0  0  0  0  0  0  0  0
    2.6131    2.7957    3.1541 H   0  0  0  0  0  0  0  0  0  0  0  0
    0.7415    2.4915    1.4361 H   0  0  0  0  0  0  0  0  0  0  0  0
    1.5817    1.4800   -1.5454 H   0  0  0  0  0  0  0  0  0  0  0  0
    2.2098   -0.1474   -1.2674 H   0  0  0  0  0  0  0  0  0  0  0  0
    0.6009   -1.8955   -0.3314 H   0  0  0  0  0  0  0  0  0  0  0  0
    0.9004   -0.9830    1.1398 H   0  0  0  0  0  0  0  0  0  0  0  0
   -1.3733   -0.6827    1.6575 H   0  0  0  0  0  0  0  0  0  0  0  0
   -1.2088   -2.3481    1.1510 H   0  0  0  0  0  0  0  0  0  0  0  0
   -2.8500   -2.0649   -0.3047 H   0  0  0  0  0  0  0  0  0  0  0  0
   -1.9927    1.7667    0.5565 H   0  0  0  0  0  0  0  0  0  0  0  0
   -4.2144    2.9272    0.8505 H   0  0  0  0  0  0  0  0  0  0  0  0
   -8.3741    0.8015    0.1345 H   0  0  0  0  0  0  0  0  0  0  0  0
   -7.7311   -1.5013   -0.5239 H   0  0  0  0  0  0  0  0  0  0  0  0
   -5.3037   -2.1020   -0.6420 H   0  0  0  0  0  0  0  0  0  0  0  0
   -1.2241   -1.9525   -1.9813 H   0  0  0  0  0  0  0  0  0  0  0  0
   -2.4166   -0.7474   -2.4370 H   0  0  0  0  0  0  0  0  0  0  0  0
   -0.9713    1.0511   -1.9665 H   0  0  0  0  0  0  0  0  0  0  0  0
    0.1021   -0.1842   -2.6074 H   0  0  0  0  0  0  0  0  0  0  0  0
    4.4999    1.1205   -1.6928 H   0  0  0  0  0  0  0  0  0  0  0  0
    6.2999   -0.2524   -2.7118 H   0  0  0  0  0  0  0  0  0  0  0  0
  1  2  1  0
  2  3  1  0
  3  4  2  0
  4  5  1  0
  5  6  1  0
  6  7  2  0
  7  8  1  0
  8  9  1  0
  9 10  2  0
 10 11  1  0
 11 12  1  0
 12 13  1  0
 13 14  1  0
 14 15  1  0
 15 16  1  0
 16 17  2  0
 17 18  1  0
 18 19  1  0
 19 20  1  0
 20 21  2  0
 21 22  1  0
 22 23  2  0
 23 24  1  0
 15 25  1  0
 25 26  1  0
  5 27  2  0
 27 28  1  0
 28  2  2  0
 10  6  1  0
 26 12  1  0
 24 16  1  0
 24 19  2  0
  3 29  1  0
  4 30  1  0
  8 31  1  0
  9 32  1  0
 11 33  1  0
 11 34  1  0
 13 35  1  0
 13 36  1  0
 14 37  1  0
 14 38  1  0
 15 39  1  0
 17 40  1  0
 18 41  1  0
 21 42  1  0
 22 43  1  0
 23 44  1  0
 25 45  1  0
 25 46  1  0
 26 47  1  0
 26 48  1  0
 27 49  1  0
 28 50  1  0
M  END
$$$$
OCNT-2315512
     RDKit          3D

 44 47  0  0  0  0  0  0  0  0999 V2000
   -2.3138    3.5161   -0.2449 C   0  0  0  0  0  0  0  0  0  0  0  0
   -2.3308    2.7474    1.0676 C   0  0  0  0  0  0  0  0  0  0  0  0
   -2.5500    1.2727    0.8527 C   0  0  0  0  0  0  0  0  0  0  0  0
   -3.8160    0.7088    0.9801 C   0  0  0  0  0  0  0  0  0  0  0  0
   -3.9967   -0.6587    0.7574 C   0  0  0  0  0  0  0  0  0  0  0  0
   -2.9456   -1.4950    0.4067 C   0  0  0  0  0  0  0  0  0  0  0  0
   -3.2167   -2.7930    0.2027 N   0  0  0  0  0  0  0  0  0  0  0  0
   -2.1993   -3.6007   -0.1469 C   0  0  0  0  0  0  0  0  0  0  0  0
   -0.8943   -3.1758   -0.3040 C   0  0  0  0  0  0  0  0  0  0  0  0
   -0.5876   -1.8274   -0.0920 C   0  0  0  0  0  0  0  0  0  0  0  0
    0.7463   -1.3483   -0.2095 N   0  0  0  0  0  0  0  0  0  0  0  0
    1.5652   -1.9652   -1.2553 C   0  0  0  0  0  0  0  0  0  0  0  0
    2.7755   -1.0762   -1.5485 C   0  0  0  0  0  0  0  0  0  0  0  0
    3.3253   -0.3809   -0.2887 C   0  0  0  0  0  0  0  0  0  0  0  0
    3.0107    1.0392   -0.1896 N   0  0  0  0  0  0  0  0  0  0  0  0
    1.9893    1.7583   -0.7352 C   0  0  0  0  0  0  0  0  0  0  0  0
    2.2065    3.0390   -0.2911 C   0  0  0  0  0  0  0  0  0  0  0  0
    3.3243    3.0661    0.4895 N   0  0  0  0  0  0  0  0  0  0  0  0
    3.8135    1.8348    0.5462 N   0  0  0  0  0  0  0  0  0  0  0  0
    2.9131   -1.1300    0.9830 C   0  0  0  0  0  0  0  0  0  0  0  0
    1.3934   -1.2457    1.1162 C   0  0  0  0  0  0  0  0  0  0  0  0
   -1.6488   -0.9491    0.2750 C   0  0  0  0  0  0  0  0  0  0  0  0
   -1.4825    0.4401    0.4939 C   0  0  0  0  0  0  0  0  0  0  0  0
   -2.1610    4.5834   -0.0562 H   0  0  0  0  0  0  0  0  0  0  0  0
   -1.5071    3.1697   -0.8999 H   0  0  0  0  0  0  0  0  0  0  0  0
   -3.2593    3.3980   -0.7852 H   0  0  0  0  0  0  0  0  0  0  0  0
   -1.3846    2.9011    1.6009 H   0  0  0  0  0  0  0  0  0  0  0  0
   -3.1157    3.1501    1.7194 H   0  0  0  0  0  0  0  0  0  0  0  0
   -4.6733    1.3215    1.2481 H   0  0  0  0  0  0  0  0  0  0  0  0
   -4.9923   -1.0854    0.8571 H   0  0  0  0  0  0  0  0  0  0  0  0
   -2.4690   -4.6420   -0.2978 H   0  0  0  0  0  0  0  0  0  0  0  0
   -0.1379   -3.9048   -0.5649 H   0  0  0  0  0  0  0  0  0  0  0  0
    0.9962   -2.0926   -2.1848 H   0  0  0  0  0  0  0  0  0  0  0  0
    1.9113   -2.9584   -0.9406 H   0  0  0  0  0  0  0  0  0  0  0  0
    3.5585   -1.7154   -1.9773 H   0  0  0  0  0  0  0  0  0  0  0  0
    2.5315   -0.3527   -2.3349 H   0  0  0  0  0  0  0  0  0  0  0  0
    4.4216   -0.4089   -0.3641 H   0  0  0  0  0  0  0  0  0  0  0  0
    1.2198    1.3231   -1.3551 H   0  0  0  0  0  0  0  0  0  0  0  0
    1.6271    3.9297   -0.4853 H   0  0  0  0  0  0  0  0  0  0  0  0
    3.3246   -0.6564    1.8825 H   0  0  0  0  0  0  0  0  0  0  0  0
    3.3442   -2.1396    0.9480 H   0  0  0  0  0  0  0  0  0  0  0  0
    1.1643   -2.1175    1.7434 H   0  0  0  0  0  0  0  0  0  0  0  0
    1.0174   -0.3609    1.6423 H   0  0  0  0  0  0  0  0  0  0  0  0
   -0.4974    0.8815    0.3764 H   0  0  0  0  0  0  0  0  0  0  0  0
  1  2  1  0
  2  3  1  0
  3  4  2  0
  4  5  1  0
  5  6  2  0
  6  7  1  0
  7  8  2  0
  8  9  1  0
  9 10  2  0
 10 11  1  0
 11 12  1  0
 12 13  1  0
 13 14  1  0
 14 15  1  0
 15 16  1  0
 16 17  2  0
 17 18  1  0
 18 19  2  0
 14 20  1  0
 20 21  1  0
 10 22  1  0
 22 23  2  0
 23  3  1  0
 22  6  1  0
 21 11  1  0
 19 15  1  0
  1 24  1  0
  1 25  1  0
  1 26  1  0
  2 27  1  0
  2 28  1  0
  4 29  1  0
  5 30  1  0
  8 31  1  0
  9 32  1  0
 12 33  1  0
 12 34  1  0
 13 35  1  0
 13 36  1  0
 14 37  1  0
 16 38  1  0
 17 39  1  0
 20 40  1  0
 20 41  1  0
 21 42  1  0
 21 43  1  0
 23 44  1  0
M  END
$$$$
OCNT-2315518
     RDKit          3D

 55 57  0  0  0  0  0  0  0  0999 V2000
    4.1373   -2.7961    0.1611 C   0  0  0  0  0  0  0  0  0  0  0  0
    4.5613   -1.3772   -0.2316 C   0  0  0  0  0  0  0  0  0  0  0  0
    5.7185   -0.9168    0.6596 C   0  0  0  0  0  0  0  0  0  0  0  0
    3.3493   -0.4067   -0.2601 C   0  0  0  0  0  0  0  0  0  0  0  0
    2.5825   -0.3174    1.0754 C   0  0  0  0  0  0  0  0  0  0  0  0
    1.7571    0.9658    1.2279 C   0  0  0  0  0  0  0  0  0  0  0  0
    1.2842    1.5117   -0.1248 C   0  0  0  0  0  0  0  0  0  0  0  0
    0.3426    2.7157    0.0785 C   0  0  0  0  0  0  0  0  0  0  0  0
   -0.1633    3.3209   -1.1566 N   0  0  0  0  0  0  0  0  0  0  0  0
   -1.0277    2.4555   -1.9651 C   0  0  0  0  0  0  0  0  0  0  0  0
   -2.2909    2.0798   -1.2748 C   0  0  0  0  0  0  0  0  0  0  0  0
   -3.2657    2.8740   -0.8867 N   0  0  0  0  0  0  0  0  0  0  0  0
   -4.2227    2.1025   -0.2715 N   0  0  0  0  0  0  0  0  0  0  0  0
   -3.8173    0.8508   -0.2903 C   0  0  0  0  0  0  0  0  0  0  0  0
   -4.5324   -0.3310    0.2784 C   0  0  0  0  0  0  0  0  0  0  0  0
   -3.6895   -1.0704    1.3170 C   0  0  0  0  0  0  0  0  0  0  0  0
   -4.4841   -2.2236    1.9278 C   0  0  0  0  0  0  0  0  0  0  0  0
   -5.4856   -2.7473    1.0549 O   0  0  0  0  0  0  0  0  0  0  0  0
   -5.0994   -2.7313   -0.3128 C   0  0  0  0  0  0  0  0  0  0  0  0
   -5.0099   -1.2948   -0.8182 C   0  0  0  0  0  0  0  0  0  0  0  0
   -2.6026    0.7950   -0.9220 N   0  0  0  0  0  0  0  0  0  0  0  0
    2.4927    1.8657   -1.0134 C   0  0  0  0  0  0  0  0  0  0  0  0
    3.7282    0.9968   -0.7506 C   0  0  0  0  0  0  0  0  0  0  0  0
    4.9731   -3.4942    0.0422 H   0  0  0  0  0  0  0  0  0  0  0  0
    3.3183   -3.1486   -0.4748 H   0  0  0  0  0  0  0  0  0  0  0  0
    3.8082   -2.8475    1.2040 H   0  0  0  0  0  0  0  0  0  0  0  0
    4.9522   -1.4343   -1.2569 H   0  0  0  0  0  0  0  0  0  0  0  0
    6.1085    0.0538    0.3397 H   0  0  0  0  0  0  0  0  0  0  0  0
    6.5490   -1.6296    0.6044 H   0  0  0  0  0  0  0  0  0  0  0  0
    5.4234   -0.8388    1.7098 H   0  0  0  0  0  0  0  0  0  0  0  0
    2.6491   -0.8189   -1.0026 H   0  0  0  0  0  0  0  0  0  0  0  0
    1.9088   -1.1810    1.1465 H   0  0  0  0  0  0  0  0  0  0  0  0
    3.2570   -0.3893    1.9349 H   0  0  0  0  0  0  0  0  0  0  0  0
    0.9029    0.7646    1.8857 H   0  0  0  0  0  0  0  0  0  0  0  0
    2.3657    1.7261    1.7350 H   0  0  0  0  0  0  0  0  0  0  0  0
    0.7202    0.7066   -0.6139 H   0  0  0  0  0  0  0  0  0  0  0  0
   -0.4900    2.4326    0.7339 H   0  0  0  0  0  0  0  0  0  0  0  0
    0.8909    3.4973    0.6199 H   0  0  0  0  0  0  0  0  0  0  0  0
   -0.7216    4.1409   -0.9024 H   0  0  0  0  0  0  0  0  0  0  0  0
   -1.2916    3.0071   -2.8755 H   0  0  0  0  0  0  0  0  0  0  0  0
   -0.4828    1.5695   -2.3081 H   0  0  0  0  0  0  0  0  0  0  0  0
   -5.4243    0.0514    0.7958 H   0  0  0  0  0  0  0  0  0  0  0  0
   -3.3344   -0.4002    2.1091 H   0  0  0  0  0  0  0  0  0  0  0  0
   -2.7872   -1.4772    0.8405 H   0  0  0  0  0  0  0  0  0  0  0  0
   -4.9992   -1.8842    2.8327 H   0  0  0  0  0  0  0  0  0  0  0  0
   -3.8118   -3.0361    2.2248 H   0  0  0  0  0  0  0  0  0  0  0  0
   -5.8452   -3.2862   -0.8910 H   0  0  0  0  0  0  0  0  0  0  0  0
   -4.1428   -3.2551   -0.4288 H   0  0  0  0  0  0  0  0  0  0  0  0
   -4.3726   -1.2731   -1.7105 H   0  0  0  0  0  0  0  0  0  0  0  0
   -6.0028   -0.9653   -1.1519 H   0  0  0  0  0  0  0  0  0  0  0  0
   -2.0384   -0.0260   -1.0814 H   0  0  0  0  0  0  0  0  0  0  0  0
    2.7799    2.9167   -0.8838 H   0  0  0  0  0  0  0  0  0  0  0  0
    2.1965    1.7587   -2.0647 H   0  0  0  0  0  0  0  0  0  0  0  0
    4.3287    0.9413   -1.6663 H   0  0  0  0  0  0  0  0  0  0  0  0
    4.3501    1.4971    0.0023 H   0  0  0  0  0  0  0  0  0  0  0  0
  1  2  1  0
  2  3  1  0
  2  4  1  0
  4  5  1  0
  5  6  1  0
  6  7  1  0
  7  8  1  0
  8  9  1  0
  9 10  1  0
 10 11  1  0
 11 12  2  0
 12 13  1  0
 13 14  2  0
 14 15  1  0
 15 16  1  0
 16 17  1  0
 17 18  1  0
 18 19  1  0
 19 20  1  0
 14 21  1  0
  7 22  1  0
 22 23  1  0
 23  4  1  0
 21 11  1  0
 20 15  1  0
  1 24  1  0
  1 25  1  0
  1 26  1  0
  2 27  1  0
  3 28  1  0
  3 29  1  0
  3 30  1  0
  4 31  1  0
  5 32  1  0
  5 33  1  0
  6 34  1  0
  6 35  1  0
  7 36  1  0
  8 37  1  0
  8 38  1  0
  9 39  1  0
 10 40  1  0
 10 41  1  0
 15 42  1  0
 16 43  1  0
 16 44  1  0
 17 45  1  0
 17 46  1  0
 19 47  1  0
 19 48  1  0
 20 49  1  0
 20 50  1  0
 21 51  1  0
 22 52  1  0
 22 53  1  0
 23 54  1  0
 23 55  1  0
M  END
$$$$
OCNT-2315525
     RDKit          3D

 44 46  0  0  0  0  0  0  0  0999 V2000
    8.3778    1.4063    0.0377 N   0  0  0  0  0  0  0  0  0  0  0  0
    7.1942    2.0416   -0.2215 C   0  0  0  0  0  0  0  0  0  0  0  0
    7.1622    3.2488   -0.4210 O   0  0  0  0  0  0  0  0  0  0  0  0
    5.9580    1.2156   -0.2075 C   0  0  0  0  0  0  0  0  0  0  0  0
    4.7351    1.8483    0.0349 C   0  0  0  0  0  0  0  0  0  0  0  0
    3.5460    1.1095    0.0573 C   0  0  0  0  0  0  0  0  0  0  0  0
    3.5640   -0.2679   -0.1694 C   0  0  0  0  0  0  0  0  0  0  0  0
    2.4097   -1.0752   -0.1765 N   0  0  0  0  0  0  0  0  0  0  0  0
    1.1379   -0.7190    0.2139 C   0  0  0  0  0  0  0  0  0  0  0  0
    0.7941    0.3339    0.7328 O   0  0  0  0  0  0  0  0  0  0  0  0
    0.2458   -1.7440   -0.0405 N   0  0  0  0  0  0  0  0  0  0  0  0
   -1.1674   -1.5679    0.2548 C   0  0  0  0  0  0  0  0  0  0  0  0
   -1.8871   -0.6995   -0.7992 C   0  0  0  0  0  0  0  0  0  0  0  0
   -3.3157   -0.4233   -0.5861 N   0  0  0  0  0  0  0  0  0  0  0  0
   -4.1350   -1.6425   -0.4440 C   0  0  0  0  0  0  0  0  0  0  0  0
   -5.6454   -1.3313   -0.5446 C   0  0  0  0  0  0  0  0  0  0  0  0
   -5.9597   -0.1196    0.2704 C   0  0  0  0  0  0  0  0  0  0  0  0
   -4.9976    0.7502    0.7451 C   0  0  0  0  0  0  0  0  0  0  0  0
   -5.5983    1.8317    1.4611 C   0  0  0  0  0  0  0  0  0  0  0  0
   -6.9738    1.7352    1.4930 C   0  0  0  0  0  0  0  0  0  0  0  0
   -7.5424    0.3467    0.6670 S   0  0  0  0  0  0  0  0  0  0  0  0
   -3.5255    0.5199    0.5346 C   0  0  0  0  0  0  0  0  0  0  0  0
    4.7887   -0.8949   -0.4351 C   0  0  0  0  0  0  0  0  0  0  0  0
    5.9807   -0.1606   -0.4543 C   0  0  0  0  0  0  0  0  0  0  0  0
    8.4075    0.5111    0.5035 H   0  0  0  0  0  0  0  0  0  0  0  0
    9.1772    2.0156    0.1602 H   0  0  0  0  0  0  0  0  0  0  0  0
    4.6994    2.9224    0.2093 H   0  0  0  0  0  0  0  0  0  0  0  0
    2.6198    1.6450    0.2450 H   0  0  0  0  0  0  0  0  0  0  0  0
    2.5471   -2.0612   -0.3368 H   0  0  0  0  0  0  0  0  0  0  0  0
    0.4716   -2.3404   -0.8225 H   0  0  0  0  0  0  0  0  0  0  0  0
   -1.2533   -1.1258    1.2526 H   0  0  0  0  0  0  0  0  0  0  0  0
   -1.6002   -2.5727    0.2879 H   0  0  0  0  0  0  0  0  0  0  0  0
   -1.3589    0.2553   -0.9175 H   0  0  0  0  0  0  0  0  0  0  0  0
   -1.7808   -1.1917   -1.7755 H   0  0  0  0  0  0  0  0  0  0  0  0
   -3.8873   -2.3619   -1.2341 H   0  0  0  0  0  0  0  0  0  0  0  0
   -3.9290   -2.1323    0.5170 H   0  0  0  0  0  0  0  0  0  0  0  0
   -6.2216   -2.1989   -0.2042 H   0  0  0  0  0  0  0  0  0  0  0  0
   -5.9103   -1.1375   -1.5914 H   0  0  0  0  0  0  0  0  0  0  0  0
   -5.0500    2.6399    1.9297 H   0  0  0  0  0  0  0  0  0  0  0  0
   -7.6748    2.4125    1.9606 H   0  0  0  0  0  0  0  0  0  0  0  0
   -3.0430    1.4774    0.3054 H   0  0  0  0  0  0  0  0  0  0  0  0
   -3.1020    0.1360    1.4699 H   0  0  0  0  0  0  0  0  0  0  0  0
    4.8336   -1.9624   -0.6354 H   0  0  0  0  0  0  0  0  0  0  0  0
    6.9090   -0.6725   -0.6898 H   0  0  0  0  0  0  0  0  0  0  0  0
  1  2  1  0
  2  3  2  0
  2  4  1  0
  4  5  1  0
  5  6  2  0
  6  7  1  0
  7  8  1  0
  8  9  1  0
  9 10  2  0
  9 11  1  0
 11 12  1  0
 12 13  1  0
 13 14  1  0
 14 15  1  0
 15 16  1  0
 16 17  1  0
 17 18  2  0
 18 19  1  0
 19 20  2  0
 20 21  1  0
 18 22  1  0
  7 23  2  0
 23 24  1  0
 24  4  2  0
 22 14  1  0
 21 17  1  0
  1 25  1  0
  1 26  1  0
  5 27  1  0
  6 28  1  0
  8 29  1  0
 11 30  1  0
 12 31  1  0
 12 32  1  0
 13 33  1  0
 13 34  1  0
 15 35  1  0
 15 36  1  0
 16 37  1  0
 16 38  1  0
 19 39  1  0
 20 40  1  0
 22 41  1  0
 22 42  1  0
 23 43  1  0
 24 44  1  0
M  END
$$$$
OCNT-2315532
     RDKit          3D

 38 41  0  0  0  0  0  0  0  0999 V2000
   -2.1485   -4.5262   -0.5782 N   0  0  0  0  0  0  0  0  0  0  0  0
   -2.6205   -3.5040   -0.3001 C   0  0  0  0  0  0  0  0  0  0  0  0
   -3.1610   -2.2297    0.0500 C   0  0  0  0  0  0  0  0  0  0  0  0
   -4.5313   -2.0944    0.1652 C   0  0  0  0  0  0  0  0  0  0  0  0
   -5.1504   -0.9378    0.4872 N   0  0  0  0  0  0  0  0  0  0  0  0
   -4.4064    0.1598    0.7233 C   0  0  0  0  0  0  0  0  0  0  0  0
   -5.0278    1.3627    1.0660 C   0  0  0  0  0  0  0  0  0  0  0  0
   -6.3680    1.4171    1.1511 F   0  0  0  0  0  0  0  0  0  0  0  0
   -4.3026    2.5170    1.3284 C   0  0  0  0  0  0  0  0  0  0  0  0
   -4.9357    3.6518    1.6565 F   0  0  0  0  0  0  0  0  0  0  0  0
   -2.9245    2.4886    1.2550 C   0  0  0  0  0  0  0  0  0  0  0  0
   -2.2065    3.5889    1.5135 F   0  0  0  0  0  0  0  0  0  0  0  0
   -2.2680    1.3130    0.9153 C   0  0  0  0  0  0  0  0  0  0  0  0
   -2.9923    0.1308    0.6356 C   0  0  0  0  0  0  0  0  0  0  0  0
   -2.3600   -1.0999    0.2901 C   0  0  0  0  0  0  0  0  0  0  0  0
   -0.9385   -1.1362    0.1153 N   0  0  0  0  0  0  0  0  0  0  0  0
   -0.5429   -0.7370   -1.2584 C   0  0  0  0  0  0  0  0  0  0  0  0
    0.9225   -0.5315   -1.4120 C   0  0  0  0  0  0  0  0  0  0  0  0
    1.6444   -0.6404   -2.5035 N   0  0  0  0  0  0  0  0  0  0  0  0
    2.9464   -0.3488   -2.1739 N   0  0  0  0  0  0  0  0  0  0  0  0
    3.0089   -0.0635   -0.8851 C   0  0  0  0  0  0  0  0  0  0  0  0
    4.2079    0.2959   -0.1279 C   0  0  0  0  0  0  0  0  0  0  0  0
    5.4433    0.3245   -0.7830 C   0  0  0  0  0  0  0  0  0  0  0  0
    6.5766    0.6646   -0.0642 C   0  0  0  0  0  0  0  0  0  0  0  0
    6.5632    0.9751    1.2480 N   0  0  0  0  0  0  0  0  0  0  0  0
    5.3658    0.9447    1.8657 C   0  0  0  0  0  0  0  0  0  0  0  0
    4.1761    0.6162    1.2323 C   0  0  0  0  0  0  0  0  0  0  0  0
    1.7400   -0.1682   -0.3761 N   0  0  0  0  0  0  0  0  0  0  0  0
   -5.2049   -2.9327   -0.0052 H   0  0  0  0  0  0  0  0  0  0  0  0
   -1.1823    1.3263    0.8809 H   0  0  0  0  0  0  0  0  0  0  0  0
   -0.5887   -2.0875    0.2684 H   0  0  0  0  0  0  0  0  0  0  0  0
   -1.0397    0.1980   -1.5455 H   0  0  0  0  0  0  0  0  0  0  0  0
   -0.8659   -1.5098   -1.9670 H   0  0  0  0  0  0  0  0  0  0  0  0
    5.5253    0.0851   -1.8396 H   0  0  0  0  0  0  0  0  0  0  0  0
    7.5523    0.6965   -0.5409 H   0  0  0  0  0  0  0  0  0  0  0  0
    5.3866    1.2009    2.9216 H   0  0  0  0  0  0  0  0  0  0  0  0
    3.2614    0.6205    1.8114 H   0  0  0  0  0  0  0  0  0  0  0  0
    1.4454   -0.0307    0.5783 H   0  0  0  0  0  0  0  0  0  0  0  0
  1  2  3  0
  2  3  1  0
  3  4  1  0
  4  5  2  0
  5  6  1  0
  6  7  2  0
  7  8  1  0
  7  9  1  0
  9 10  1  0
  9 11  2  0
 11 12  1  0
 11 13  1  0
 13 14  2  0
 14 15  1  0
 15 16  1  0
 16 17  1  0
 17 18  1  0
 18 19  2  0
 19 20  1  0
 20 21  2  0
 21 22  1  0
 22 23  2  0
 23 24  1  0
 24 25  2  0
 25 26  1  0
 26 27  2  0
 21 28  1  0
 15  3  2  0
 28 18  1  0
 14  6  1  0
 27 22  1  0
  4 29  1  0
 13 30  1  0
 16 31  1  0
 17 32  1  0
 17 33  1  0
 23 34  1  0
 24 35  1  0
 26 36  1  0
 27 37  1  0
 28 38  1  0
M  END
$$$$
OCNT-2315535
     RDKit          3D

 52 54  0  0  0  0  0  0  0  0999 V2000
   -2.9975    2.6364   -1.3870 C   0  0  0  0  0  0  0  0  0  0  0  0
   -2.5337    1.2472   -1.3170 N   0  0  0  0  0  0  0  0  0  0  0  0
   -2.3566    0.7416   -2.6856 C   0  0  0  0  0  0  0  0  0  0  0  0
   -3.3597    0.3402   -0.4290 C   0  0  0  0  0  0  0  0  0  0  0  0
   -2.4815   -0.9281   -0.1252 C   0  0  0  0  0  0  0  0  0  0  0  0
   -1.1342   -0.5593    0.2799 N   0  0  0  0  0  0  0  0  0  0  0  0
   -0.2166   -1.5266    0.5827 C   0  0  0  0  0  0  0  0  0  0  0  0
   -0.4692   -2.7204    0.6597 O   0  0  0  0  0  0  0  0  0  0  0  0
    1.0218   -0.9830    0.7973 N   0  0  0  0  0  0  0  0  0  0  0  0
    2.0903   -1.8318    1.2668 C   0  0  0  0  0  0  0  0  0  0  0  0
    3.3994   -1.0914    1.2563 C   0  0  0  0  0  0  0  0  0  0  0  0
    3.9955   -0.6693    2.4455 C   0  0  0  0  0  0  0  0  0  0  0  0
    5.1907    0.0241    2.3747 C   0  0  0  0  0  0  0  0  0  0  0  0
    5.8167    0.3243    1.2171 N   0  0  0  0  0  0  0  0  0  0  0  0
    5.2325   -0.0846    0.0610 C   0  0  0  0  0  0  0  0  0  0  0  0
    5.8979    0.2398   -1.1531 N   0  0  0  0  0  0  0  0  0  0  0  0
    5.5318   -0.0492   -2.4499 C   0  0  0  0  0  0  0  0  0  0  0  0
    6.5158    0.4899   -3.2464 C   0  0  0  0  0  0  0  0  0  0  0  0
    7.4753    1.1013   -2.4906 N   0  0  0  0  0  0  0  0  0  0  0  0
    7.0832    0.9359   -1.2455 C   0  0  0  0  0  0  0  0  0  0  0  0
    4.0314   -0.7890    0.0414 C   0  0  0  0  0  0  0  0  0  0  0  0
   -3.7067    1.0278    0.9272 C   0  0  0  0  0  0  0  0  0  0  0  0
   -4.6505    0.1942    1.7884 C   0  0  0  0  0  0  0  0  0  0  0  0
   -5.8394   -0.1141    1.0654 O   0  0  0  0  0  0  0  0  0  0  0  0
   -5.5831   -0.8801   -0.1068 C   0  0  0  0  0  0  0  0  0  0  0  0
   -4.6939   -0.1104   -1.0803 C   0  0  0  0  0  0  0  0  0  0  0  0
   -2.3805    3.2163   -2.0843 H   0  0  0  0  0  0  0  0  0  0  0  0
   -2.8836    3.1428   -0.4238 H   0  0  0  0  0  0  0  0  0  0  0  0
   -4.0381    2.7158   -1.7172 H   0  0  0  0  0  0  0  0  0  0  0  0
   -1.6189    1.3530   -3.2189 H   0  0  0  0  0  0  0  0  0  0  0  0
   -3.2870    0.7645   -3.2632 H   0  0  0  0  0  0  0  0  0  0  0  0
   -1.9599   -0.2770   -2.7022 H   0  0  0  0  0  0  0  0  0  0  0  0
   -2.9010   -1.5624    0.6607 H   0  0  0  0  0  0  0  0  0  0  0  0
   -2.3927   -1.5682   -1.0113 H   0  0  0  0  0  0  0  0  0  0  0  0
   -0.7732    0.2424   -0.2242 H   0  0  0  0  0  0  0  0  0  0  0  0
    0.9959   -0.0413    1.1604 H   0  0  0  0  0  0  0  0  0  0  0  0
    1.8358   -2.1721    2.2776 H   0  0  0  0  0  0  0  0  0  0  0  0
    2.1554   -2.7247    0.6333 H   0  0  0  0  0  0  0  0  0  0  0  0
    3.5441   -0.8738    3.4111 H   0  0  0  0  0  0  0  0  0  0  0  0
    5.6919    0.3690    3.2752 H   0  0  0  0  0  0  0  0  0  0  0  0
    4.6378   -0.5948   -2.7083 H   0  0  0  0  0  0  0  0  0  0  0  0
    6.5811    0.4679   -4.3268 H   0  0  0  0  0  0  0  0  0  0  0  0
    7.6076    1.2937   -0.3685 H   0  0  0  0  0  0  0  0  0  0  0  0
    3.5631   -1.1089   -0.8833 H   0  0  0  0  0  0  0  0  0  0  0  0
   -4.2370    1.9686    0.7370 H   0  0  0  0  0  0  0  0  0  0  0  0
   -2.8010    1.2729    1.4938 H   0  0  0  0  0  0  0  0  0  0  0  0
   -4.1900   -0.7274    2.1573 H   0  0  0  0  0  0  0  0  0  0  0  0
   -4.9454    0.7739    2.6696 H   0  0  0  0  0  0  0  0  0  0  0  0
   -6.5479   -1.0876   -0.5815 H   0  0  0  0  0  0  0  0  0  0  0  0
   -5.1493   -1.8467    0.1715 H   0  0  0  0  0  0  0  0  0  0  0  0
   -5.2495    0.7748   -1.4139 H   0  0  0  0  0  0  0  0  0  0  0  0
   -4.5178   -0.7363   -1.9625 H   0  0  0  0  0  0  0  0  0  0  0  0
  1  2  1  0
  2  3  1  0
  2  4  1  0
  4  5  1  0
  5  6  1  0
  6  7  1  0
  7  8  2  0
  7  9  1  0
  9 10  1  0
 10 11  1  0
 11 12  2  0
 12 13  1  0
 13 14  2  0
 14 15  1  0
 15 16  1  0
 16 17  1  0
 17 18  2  0
 18 19  1  0
 19 20  2  0
 15 21  2  0
  4 22  1  0
 22 23  1  0
 23 24  1  0
 24 25  1  0
 25 26  1  0
 26  4  1  0
 21 11  1  0
 20 16  1  0
  1 27  1  0
  1 28  1  0
  1 29  1  0
  3 30  1  0
  3 31  1  0
  3 32  1  0
  5 33  1  0
  5 34  1  0
  6 35  1  0
  9 36  1  0
 10 37  1  0
 10 38  1  0
 12 39  1  0
 13 40  1  0
 17 41  1  0
 18 42  1  0
 20 43  1  0
 21 44  1  0
 22 45  1  0
 22 46  1  0
 23 47  1  0
 23 48  1  0
 25 49  1  0
 25 50  1  0
 26 51  1  0
 26 52  1  0
M  END
$$$$
OCNT-2315537
     RDKit          3D

 46 49  0  0  0  0  0  0  0  0999 V2000
    5.6136    1.0395    0.6797 C   0  0  0  0  0  0  0  0  0  0  0  0
    5.3766   -0.1401   -0.1734 N   0  0  0  0  0  0  0  0  0  0  0  0
    6.5936   -0.9697   -0.3065 C   0  0  0  0  0  0  0  0  0  0  0  0
    3.9899   -1.0449    0.1857 S   0  0  0  0  0  0  0  0  0  0  0  0
    3.9100   -2.1414   -0.7521 O   0  0  0  0  0  0  0  0  0  0  0  0
    3.9492   -1.2765    1.6112 O   0  0  0  0  0  0  0  0  0  0  0  0
    2.7763    0.0643   -0.2133 N   0  0  0  0  0  0  0  0  0  0  0  0
    2.1165    0.9688    0.7917 C   0  0  0  0  0  0  0  0  0  0  0  0
    0.8274    0.1194    0.7181 C   0  0  0  0  0  0  0  0  0  0  0  0
   -0.3697    0.8982    0.5966 N   0  0  0  0  0  0  0  0  0  0  0  0
   -1.6135    0.4380    0.1594 C   0  0  0  0  0  0  0  0  0  0  0  0
   -2.3111    1.3383   -0.5565 N   0  0  0  0  0  0  0  0  0  0  0  0
   -3.5553    1.0161   -0.9913 C   0  0  0  0  0  0  0  0  0  0  0  0
   -4.3138    2.0405   -1.7998 C   0  0  0  0  0  0  0  0  0  0  0  0
   -5.6880    2.4933   -1.3594 C   0  0  0  0  0  0  0  0  0  0  0  0
   -4.5255    3.4346   -1.2522 C   0  0  0  0  0  0  0  0  0  0  0  0
   -4.1452   -0.1687   -0.7446 N   0  0  0  0  0  0  0  0  0  0  0  0
   -3.4146   -1.0325   -0.0357 C   0  0  0  0  0  0  0  0  0  0  0  0
   -2.1393   -0.7934    0.4341 C   0  0  0  0  0  0  0  0  0  0  0  0
   -1.6448   -1.9499    1.2315 C   0  0  0  0  0  0  0  0  0  0  0  0
   -2.6167   -3.0620    0.8061 C   0  0  0  0  0  0  0  0  0  0  0  0
   -3.9243   -2.3716    0.4133 C   0  0  0  0  0  0  0  0  0  0  0  0
    1.4004   -0.3908   -0.6231 C   0  0  0  0  0  0  0  0  0  0  0  0
    5.7729    0.7504    1.7228 H   0  0  0  0  0  0  0  0  0  0  0  0
    4.7807    1.7429    0.6153 H   0  0  0  0  0  0  0  0  0  0  0  0
    6.5017    1.5786    0.3335 H   0  0  0  0  0  0  0  0  0  0  0  0
    6.8426   -1.4552    0.6417 H   0  0  0  0  0  0  0  0  0  0  0  0
    7.4409   -0.3473   -0.6116 H   0  0  0  0  0  0  0  0  0  0  0  0
    6.4619   -1.7267   -1.0845 H   0  0  0  0  0  0  0  0  0  0  0  0
    2.0430    1.9913    0.4036 H   0  0  0  0  0  0  0  0  0  0  0  0
    2.6034    0.9946    1.7701 H   0  0  0  0  0  0  0  0  0  0  0  0
    0.7792   -0.6246    1.5190 H   0  0  0  0  0  0  0  0  0  0  0  0
   -0.2496    1.8044    0.1442 H   0  0  0  0  0  0  0  0  0  0  0  0
   -4.1575    1.9651   -2.8724 H   0  0  0  0  0  0  0  0  0  0  0  0
   -6.4272    2.6760   -2.1307 H   0  0  0  0  0  0  0  0  0  0  0  0
   -6.0960    2.0781   -0.4439 H   0  0  0  0  0  0  0  0  0  0  0  0
   -4.1471    3.6619   -0.2613 H   0  0  0  0  0  0  0  0  0  0  0  0
   -4.4701    4.2615   -1.9504 H   0  0  0  0  0  0  0  0  0  0  0  0
   -1.7289   -1.7392    2.3025 H   0  0  0  0  0  0  0  0  0  0  0  0
   -0.6227   -2.2430    0.9830 H   0  0  0  0  0  0  0  0  0  0  0  0
   -2.2058   -3.5805   -0.0715 H   0  0  0  0  0  0  0  0  0  0  0  0
   -2.7573   -3.8158    1.5868 H   0  0  0  0  0  0  0  0  0  0  0  0
   -4.4456   -2.9054   -0.3852 H   0  0  0  0  0  0  0  0  0  0  0  0
   -4.5851   -2.2479    1.2768 H   0  0  0  0  0  0  0  0  0  0  0  0
    1.3079   -1.4680   -0.7851 H   0  0  0  0  0  0  0  0  0  0  0  0
    1.0671    0.1395   -1.5224 H   0  0  0  0  0  0  0  0  0  0  0  0
  1  2  1  0
  2  3  1  0
  2  4  1  0
  4  5  2  0
  4  6  2  0
  4  7  1  0
  7  8  1  0
  8  9  1  0
  9 10  1  0
 10 11  1  0
 11 12  1  0
 12 13  2  0
 13 14  1  0
 14 15  1  0
 15 16  1  0
 13 17  1  0
 17 18  2  0
 18 19  1  0
 19 20  1  0
 20 21  1  0
 21 22  1  0
  9 23  1  0
 23  7  1  0
 19 11  2  0
 16 14  1  0
 22 18  1  0
  1 24  1  0
  1 25  1  0
  1 26  1  0
  3 27  1  0
  3 28  1  0
  3 29  1  0
  8 30  1  0
  8 31  1  0
  9 32  1  0
 10 33  1  0
 14 34  1  0
 15 35  1  0
 15 36  1  0
 16 37  1  0
 16 38  1  0
 20 39  1  0
 20 40  1  0
 21 41  1  0
 21 42  1  0
 22 43  1  0
 22 44  1  0
 23 45  1  0
 23 46  1  0
M  END
$$$$
OCNT-2315539
     RDKit          3D

  0  0  0  0  0  0  0  0  0  0999 V3000
M  V30 BEGIN CTAB
M  V30 COUNTS 43 46 0 0 0
M  V30 BEGIN ATOM
M  V30 1 O -1.023814 -2.929695 1.077121 0
M  V30 2 C -1.400891 -2.053646 0.025932 0 CFG=1
M  V30 3 C -2.696931 -1.304440 0.339789 0
M  V30 4 C -2.461909 0.145969 -0.114227 0
M  V30 5 C -3.634807 0.760238 -0.878911 0
M  V30 6 N -4.812328 0.942649 -0.050132 0
M  V30 7 C -5.993687 0.265215 -0.139831 0
M  V30 8 C -6.802390 0.781734 0.845129 0
M  V30 9 C -6.017188 1.766809 1.470949 0
M  V30 10 N -4.801414 1.868079 0.927797 0
M  V30 11 C -1.179249 0.098674 -0.950097 0
M  V30 12 C -0.342845 -0.960118 -0.239195 0 CFG=2
M  V30 13 N 0.730583 -1.489741 -1.087740 0
M  V30 14 C 1.982679 -0.905724 -0.849980 0
M  V30 15 C 2.251590 0.417732 -1.157487 0
M  V30 16 C 3.520612 0.943032 -0.906938 0
M  V30 17 C 4.483079 0.112208 -0.355303 0
M  V30 18 N 5.791751 0.576687 -0.072225 0
M  V30 19 C 6.814058 -0.172137 0.472145 0
M  V30 20 C 7.891291 0.674056 0.573917 0
M  V30 21 N 7.571795 1.920648 0.112166 0
M  V30 22 C 6.315110 1.834080 -0.267729 0
M  V30 23 N 4.201215 -1.177534 -0.071235 0
M  V30 24 N 2.948098 -1.685292 -0.329650 0
M  V30 25 H -0.891337 -2.407689 1.887524 0
M  V30 26 H -1.548241 -2.669696 -0.870169 0
M  V30 27 H -3.528389 -1.773734 -0.198500 0
M  V30 28 H -2.947905 -1.339920 1.406053 0
M  V30 29 H -2.256888 0.748339 0.782106 0
M  V30 30 H -3.918816 0.137328 -1.735108 0
M  V30 31 H -3.368532 1.751086 -1.266004 0
M  V30 32 H -6.158464 -0.508484 -0.876441 0
M  V30 33 H -7.816480 0.490731 1.078283 0
M  V30 34 H -6.279655 2.413910 2.298058 0
M  V30 35 H -0.690020 1.076672 -0.973557 0
M  V30 36 H -1.390775 -0.194719 -1.986404 0
M  V30 37 H 0.047558 -0.592367 0.720320 0
M  V30 38 H 0.889463 -2.471732 -0.832787 0
M  V30 39 H 1.495486 1.041720 -1.618957 0
M  V30 40 H 3.710580 1.978565 -1.161569 0
M  V30 41 H 6.686709 -1.214407 0.731283 0
M  V30 42 H 8.879082 0.448828 0.955720 0
M  V30 43 H 5.752217 2.656087 -0.686567 0
M  V30 END ATOM
M  V30 BEGIN BOND
M  V30 1 1 1 2
M  V30 2 1 2 3
M  V30 3 1 3 4
M  V30 4 1 4 5
M  V30 5 1 5 6
M  V30 6 1 6 7
M  V30 7 2 7 8
M  V30 8 1 8 9
M  V30 9 2 9 10
M  V30 10 1 4 11
M  V30 11 1 11 12
M  V30 12 1 12 13
M  V30 13 1 13 14
M  V30 14 2 14 15
M  V30 15 1 15 16
M  V30 16 2 16 17
M  V30 17 1 17 18
M  V30 18 1 18 19
M  V30 19 2 19 20
M  V30 20 1 20 21
M  V30 21 2 21 22
M  V30 22 1 17 23
M  V30 23 2 23 24
M  V30 24 1 12 2
M  V30 25 1 24 14
M  V30 26 1 10 6
M  V30 27 1 22 18
M  V30 28 1 1 25
M  V30 29 1 2 26 CFG=3
M  V30 30 1 3 27
M  V30 31 1 3 28
M  V30 32 1 4 29
M  V30 33 1 5 30
M  V30 34 1 5 31
M  V30 35 1 7 32
M  V30 36 1 8 33
M  V30 37 1 9 34
M  V30 38 1 11 35
M  V30 39 1 11 36
M  V30 40 1 12 37 CFG=1
M  V30 41 1 13 38
M  V30 42 1 15 39
M  V30 43 1 16 40
M  V30 44 1 19 41
M  V30 45 1 20 42
M  V30 46 1 22 43
M  V30 END BOND
M  V30 BEGIN COLLECTION
M  V30 MDLV30/STERAC1 ATOMS=(2 2 12)
M  V30 END COLLECTION
M  V30 END CTAB
M  END
>  <_CXSMILES_Data>  (988) 
|&1:1,11|

$$$$
OCNT-2315542
     RDKit          3D

 55 58  0  0  0  0  0  0  0  0999 V2000
   -5.3113    3.8740   -1.0905 C   0  0  0  0  0  0  0  0  0  0  0  0
   -4.6216    2.6589   -0.5966 C   0  0  0  0  0  0  0  0  0  0  0  0
   -5.1961    1.4577   -0.7066 N   0  0  0  0  0  0  0  0  0  0  0  0
   -4.3068    0.6118   -0.1497 N   0  0  0  0  0  0  0  0  0  0  0  0
   -4.6392   -0.7973   -0.1199 C   0  0  0  0  0  0  0  0  0  0  0  0
   -6.0372   -1.0981    0.4488 C   0  0  0  0  0  0  0  0  0  0  0  0
   -6.2610   -2.5900    0.2414 C   0  0  0  0  0  0  0  0  0  0  0  0
   -5.3955   -2.9973   -1.2688 S   0  0  0  0  0  0  0  0  0  0  0  0
   -6.3563   -3.2221   -2.3260 O   0  0  0  0  0  0  0  0  0  0  0  0
   -4.3575   -3.9558   -0.9452 O   0  0  0  0  0  0  0  0  0  0  0  0
   -4.6169   -1.4180   -1.5109 C   0  0  0  0  0  0  0  0  0  0  0  0
   -3.1606    1.2339    0.2958 C   0  0  0  0  0  0  0  0  0  0  0  0
   -2.0878    0.5722    0.8722 N   0  0  0  0  0  0  0  0  0  0  0  0
   -0.9881    1.2272    1.3973 C   0  0  0  0  0  0  0  0  0  0  0  0
   -0.8379    2.4380    1.4946 O   0  0  0  0  0  0  0  0  0  0  0  0
   -0.0498    0.3176    1.8458 N   0  0  0  0  0  0  0  0  0  0  0  0
    1.2218    0.7735    2.3682 C   0  0  0  0  0  0  0  0  0  0  0  0
    2.2872    0.7255    1.3034 C   0  0  0  0  0  0  0  0  0  0  0  0
    2.4073    1.7677    0.3722 C   0  0  0  0  0  0  0  0  0  0  0  0
    3.3621    1.7063   -0.6443 C   0  0  0  0  0  0  0  0  0  0  0  0
    4.2103    0.6039   -0.7405 C   0  0  0  0  0  0  0  0  0  0  0  0
    4.1102   -0.4295    0.1929 C   0  0  0  0  0  0  0  0  0  0  0  0
    4.8884   -1.5633    0.1353 O   0  0  0  0  0  0  0  0  0  0  0  0
    6.2428   -1.3924   -0.0401 C   0  0  0  0  0  0  0  0  0  0  0  0
    6.9938   -0.4934    0.7240 C   0  0  0  0  0  0  0  0  0  0  0  0
    8.3737   -0.3947    0.5228 C   0  0  0  0  0  0  0  0  0  0  0  0
    9.0054   -1.2017   -0.4266 C   0  0  0  0  0  0  0  0  0  0  0  0
    8.2592   -2.1148   -1.1723 C   0  0  0  0  0  0  0  0  0  0  0  0
    6.8851   -2.2099   -0.9694 C   0  0  0  0  0  0  0  0  0  0  0  0
    6.1823   -3.0958   -1.6910 F   0  0  0  0  0  0  0  0  0  0  0  0
    3.1405   -0.3819    1.1961 C   0  0  0  0  0  0  0  0  0  0  0  0
   -3.3568    2.5711    0.0214 C   0  0  0  0  0  0  0  0  0  0  0  0
   -5.9125    3.6536   -1.9795 H   0  0  0  0  0  0  0  0  0  0  0  0
   -4.5879    4.6510   -1.3587 H   0  0  0  0  0  0  0  0  0  0  0  0
   -5.9742    4.2742   -0.3159 H   0  0  0  0  0  0  0  0  0  0  0  0
   -3.9058   -1.3052    0.5166 H   0  0  0  0  0  0  0  0  0  0  0  0
   -6.8100   -0.5388   -0.0933 H   0  0  0  0  0  0  0  0  0  0  0  0
   -6.1198   -0.8242    1.5059 H   0  0  0  0  0  0  0  0  0  0  0  0
   -5.8113   -3.1708    1.0519 H   0  0  0  0  0  0  0  0  0  0  0  0
   -7.3189   -2.8424    0.1430 H   0  0  0  0  0  0  0  0  0  0  0  0
   -3.6045   -1.5605   -1.8962 H   0  0  0  0  0  0  0  0  0  0  0  0
   -5.2135   -0.8555   -2.2356 H   0  0  0  0  0  0  0  0  0  0  0  0
   -2.1229   -0.4230    1.0210 H   0  0  0  0  0  0  0  0  0  0  0  0
   -0.0173   -0.5633    1.3566 H   0  0  0  0  0  0  0  0  0  0  0  0
    1.4857    0.1052    3.1956 H   0  0  0  0  0  0  0  0  0  0  0  0
    1.1396    1.7840    2.7841 H   0  0  0  0  0  0  0  0  0  0  0  0
    1.7419    2.6290    0.4283 H   0  0  0  0  0  0  0  0  0  0  0  0
    3.4355    2.5143   -1.3680 H   0  0  0  0  0  0  0  0  0  0  0  0
    4.9341    0.5544   -1.5492 H   0  0  0  0  0  0  0  0  0  0  0  0
    6.5158    0.1275    1.4773 H   0  0  0  0  0  0  0  0  0  0  0  0
    8.9574    0.3097    1.1116 H   0  0  0  0  0  0  0  0  0  0  0  0
   10.0791   -1.1230   -0.5799 H   0  0  0  0  0  0  0  0  0  0  0  0
    8.7376   -2.7541   -1.9077 H   0  0  0  0  0  0  0  0  0  0  0  0
    3.0597   -1.2121    1.8935 H   0  0  0  0  0  0  0  0  0  0  0  0
   -2.6775    3.3866    0.2285 H   0  0  0  0  0  0  0  0  0  0  0  0
  1  2  1  0
  2  3  2  0
  3  4  1  0
  4  5  1  0
  5  6  1  0
  6  7  1  0
  7  8  1  0
  8  9  2  0
  8 10  2  0
  8 11  1  0
  4 12  1  0
 12 13  1  0
 13 14  1  0
 14 15  2  0
 14 16  1  0
 16 17  1  0
 17 18  1  0
 18 19  2  0
 19 20  1  0
 20 21  2  0
 21 22  1  0
 22 23  1  0
 23 24  1  0
 24 25  2  0
 25 26  1  0
 26 27  2  0
 27 28  1  0
 28 29  2  0
 29 30  1  0
 22 31  2  0
 12 32  2  0
 32  2  1  0
 11  5  1  0
 31 18  1  0
 29 24  1  0
  1 33  1  0
  1 34  1  0
  1 35  1  0
  5 36  1  0
  6 37  1  0
  6 38  1  0
  7 39  1  0
  7 40  1  0
 11 41  1  0
 11 42  1  0
 13 43  1  0
 16 44  1  0
 17 45  1  0
 17 46  1  0
 19 47  1  0
 20 48  1  0
 21 49  1  0
 25 50  1  0
 26 51  1  0
 27 52  1  0
 28 53  1  0
 31 54  1  0
 32 55  1  0
M  END
$$$$
OCNT-2315548
     RDKit          3D

 42 43  0  0  0  0  0  0  0  0999 V2000
    0.8927   -2.5253    0.6792 C   0  0  0  0  0  0  0  0  0  0  0  0
    0.5729   -1.2948   -0.1586 C   0  0  0  0  0  0  0  0  0  0  0  0
    0.5063   -0.0722    0.6529 N   0  0  0  0  0  0  0  0  0  0  0  0
   -0.7513    0.2332    1.3432 C   0  0  0  0  0  0  0  0  0  0  0  0
   -1.9461    0.3675    0.4175 C   0  0  0  0  0  0  0  0  0  0  0  0
   -2.0000    1.4389   -0.4939 C   0  0  0  0  0  0  0  0  0  0  0  0
   -0.9627    2.3327   -0.4971 O   0  0  0  0  0  0  0  0  0  0  0  0
   -3.0923    1.5648   -1.3563 C   0  0  0  0  0  0  0  0  0  0  0  0
   -3.1942    2.6724   -2.3617 C   0  0  0  0  0  0  0  0  0  0  0  0
   -4.1256    0.6947   -1.3383 N   0  0  0  0  0  0  0  0  0  0  0  0
   -4.0728   -0.3199   -0.4446 C   0  0  0  0  0  0  0  0  0  0  0  0
   -3.0276   -0.5405    0.4509 C   0  0  0  0  0  0  0  0  0  0  0  0
   -3.0801   -1.6920    1.4201 C   0  0  0  0  0  0  0  0  0  0  0  0
   -4.2315   -2.5052    1.2354 O   0  0  0  0  0  0  0  0  0  0  0  0
    1.6532    0.5402    1.1663 C   0  0  0  0  0  0  0  0  0  0  0  0
    1.6846    1.1711    2.2199 O   0  0  0  0  0  0  0  0  0  0  0  0
    2.9143    0.4477    0.3993 C   0  0  0  0  0  0  0  0  0  0  0  0
    2.9594    0.8674   -0.9373 C   0  0  0  0  0  0  0  0  0  0  0  0
    4.1647    0.8121   -1.6372 C   0  0  0  0  0  0  0  0  0  0  0  0
    5.3136    0.3560   -0.9937 C   0  0  0  0  0  0  0  0  0  0  0  0
    6.4605    0.3085   -1.6872 F   0  0  0  0  0  0  0  0  0  0  0  0
    5.2739   -0.0373    0.3449 C   0  0  0  0  0  0  0  0  0  0  0  0
    6.6982   -0.5907    1.1379 Cl  0  0  0  0  0  0  0  0  0  0  0  0
    4.0739    0.0155    1.0516 C   0  0  0  0  0  0  0  0  0  0  0  0
    0.1456   -2.6816    1.4625 H   0  0  0  0  0  0  0  0  0  0  0  0
    1.8680   -2.4307    1.1670 H   0  0  0  0  0  0  0  0  0  0  0  0
    0.9155   -3.4180    0.0464 H   0  0  0  0  0  0  0  0  0  0  0  0
   -0.3725   -1.4348   -0.6904 H   0  0  0  0  0  0  0  0  0  0  0  0
    1.3421   -1.1924   -0.9272 H   0  0  0  0  0  0  0  0  0  0  0  0
   -0.8954   -0.5408    2.1030 H   0  0  0  0  0  0  0  0  0  0  0  0
   -0.6631    1.1730    1.9031 H   0  0  0  0  0  0  0  0  0  0  0  0
   -1.2107    3.1268   -0.9959 H   0  0  0  0  0  0  0  0  0  0  0  0
   -3.2599    3.6402   -1.8551 H   0  0  0  0  0  0  0  0  0  0  0  0
   -2.3240    2.6664   -3.0255 H   0  0  0  0  0  0  0  0  0  0  0  0
   -4.0889    2.5560   -2.9823 H   0  0  0  0  0  0  0  0  0  0  0  0
   -4.9394   -0.9776   -0.4736 H   0  0  0  0  0  0  0  0  0  0  0  0
   -3.1039   -1.3085    2.4452 H   0  0  0  0  0  0  0  0  0  0  0  0
   -2.2056   -2.3335    1.2826 H   0  0  0  0  0  0  0  0  0  0  0  0
   -4.2067   -3.1901    1.9253 H   0  0  0  0  0  0  0  0  0  0  0  0
    2.0610    1.2429   -1.4235 H   0  0  0  0  0  0  0  0  0  0  0  0
    4.2202    1.1278   -2.6747 H   0  0  0  0  0  0  0  0  0  0  0  0
    4.0335   -0.2699    2.1000 H   0  0  0  0  0  0  0  0  0  0  0  0
  1  2  1  0
  2  3  1  0
  3  4  1  0
  4  5  1  0
  5  6  1  0
  6  7  1  0
  6  8  2  0
  8  9  1  0
  8 10  1  0
 10 11  2  0
 11 12  1  0
 12 13  1  0
 13 14  1  0
  3 15  1  0
 15 16  2  0
 15 17  1  0
 17 18  1  0
 18 19  2  0
 19 20  1  0
 20 21  1  0
 20 22  2  0
 22 23  1  0
 22 24  1  0
 12  5  2  0
 24 17  2  0
  1 25  1  0
  1 26  1  0
  1 27  1  0
  2 28  1  0
  2 29  1  0
  4 30  1  0
  4 31  1  0
  7 32  1  0
  9 33  1  0
  9 34  1  0
  9 35  1  0
 11 36  1  0
 13 37  1  0
 13 38  1  0
 14 39  1  0
 18 40  1  0
 19 41  1  0
 24 42  1  0
M  END
$$$$
OCNT-2315554
     RDKit          3D

 50 53  0  0  0  0  0  0  0  0999 V2000
   -0.2142    0.6613    2.4962 O   0  0  0  0  0  0  0  0  0  0  0  0
   -0.8459    0.0344    1.6514 C   0  0  0  0  0  0  0  0  0  0  0  0
   -0.4838   -1.2249    1.2489 N   0  0  0  0  0  0  0  0  0  0  0  0
    0.6452   -1.9199    1.8394 C   0  0  0  0  0  0  0  0  0  0  0  0
    2.0064   -1.3137    1.4993 C   0  0  0  0  0  0  0  0  0  0  0  0
    2.2613   -1.2361   -0.0050 C   0  0  0  0  0  0  0  0  0  0  0  0
    3.6297   -0.7281   -0.3040 C   0  0  0  0  0  0  0  0  0  0  0  0
    4.6261   -1.4167   -0.8204 N   0  0  0  0  0  0  0  0  0  0  0  0
    5.6747   -0.5341   -0.9158 C   0  0  0  0  0  0  0  0  0  0  0  0
    6.9774   -0.7356   -1.3936 C   0  0  0  0  0  0  0  0  0  0  0  0
    7.8713    0.3431   -1.3829 C   0  0  0  0  0  0  0  0  0  0  0  0
    7.4756    1.5956   -0.9061 C   0  0  0  0  0  0  0  0  0  0  0  0
    6.1792    1.8156   -0.4254 C   0  0  0  0  0  0  0  0  0  0  0  0
    5.3096    0.7232   -0.4488 C   0  0  0  0  0  0  0  0  0  0  0  0
    4.0017    0.5736   -0.0669 N   0  0  0  0  0  0  0  0  0  0  0  0
   -1.9709    0.5461    1.0049 N   0  0  0  0  0  0  0  0  0  0  0  0
   -2.3766    1.8902    1.4179 C   0  0  0  0  0  0  0  0  0  0  0  0
   -3.2494    2.5773    0.3723 C   0  0  0  0  0  0  0  0  0  0  0  0
   -4.4441    1.7109   -0.0144 C   0  0  0  0  0  0  0  0  0  0  0  0
   -3.9655    0.3317   -0.4855 C   0  0  0  0  0  0  0  0  0  0  0  0
   -5.0699   -0.5315   -0.8743 N   0  0  0  0  0  0  0  0  0  0  0  0
   -6.0909   -0.9754   -0.0801 C   0  0  0  0  0  0  0  0  0  0  0  0
   -6.8597   -1.7693   -0.8989 C   0  0  0  0  0  0  0  0  0  0  0  0
   -6.3318   -1.8177   -2.1620 N   0  0  0  0  0  0  0  0  0  0  0  0
   -5.2594   -1.0607   -2.1202 C   0  0  0  0  0  0  0  0  0  0  0  0
   -3.0686   -0.3320    0.5705 C   0  0  0  0  0  0  0  0  0  0  0  0
   -0.6959   -1.4512    0.2896 H   0  0  0  0  0  0  0  0  0  0  0  0
    0.5947   -2.9586    1.4959 H   0  0  0  0  0  0  0  0  0  0  0  0
    0.5103   -1.9187    2.9270 H   0  0  0  0  0  0  0  0  0  0  0  0
    2.0919   -0.3131    1.9396 H   0  0  0  0  0  0  0  0  0  0  0  0
    2.7856   -1.9230    1.9752 H   0  0  0  0  0  0  0  0  0  0  0  0
    2.1439   -2.2306   -0.4520 H   0  0  0  0  0  0  0  0  0  0  0  0
    1.5269   -0.5805   -0.4877 H   0  0  0  0  0  0  0  0  0  0  0  0
    7.2764   -1.7107   -1.7607 H   0  0  0  0  0  0  0  0  0  0  0  0
    8.8848    0.2002   -1.7500 H   0  0  0  0  0  0  0  0  0  0  0  0
    8.1898    2.4167   -0.9075 H   0  0  0  0  0  0  0  0  0  0  0  0
    5.8733    2.7874   -0.0545 H   0  0  0  0  0  0  0  0  0  0  0  0
    3.4145    1.2910    0.3337 H   0  0  0  0  0  0  0  0  0  0  0  0
   -1.4893    2.5067    1.6027 H   0  0  0  0  0  0  0  0  0  0  0  0
   -2.9153    1.7971    2.3691 H   0  0  0  0  0  0  0  0  0  0  0  0
   -3.5977    3.5425    0.7561 H   0  0  0  0  0  0  0  0  0  0  0  0
   -2.6497    2.7833   -0.5232 H   0  0  0  0  0  0  0  0  0  0  0  0
   -5.1158    1.6139    0.8479 H   0  0  0  0  0  0  0  0  0  0  0  0
   -5.0181    2.2052   -0.8074 H   0  0  0  0  0  0  0  0  0  0  0  0
   -3.3596    0.4827   -1.3904 H   0  0  0  0  0  0  0  0  0  0  0  0
   -6.1926   -0.7058    0.9618 H   0  0  0  0  0  0  0  0  0  0  0  0
   -7.7638   -2.3082   -0.6462 H   0  0  0  0  0  0  0  0  0  0  0  0
   -4.5961   -0.8690   -2.9541 H   0  0  0  0  0  0  0  0  0  0  0  0
   -2.6852   -1.2770    0.1746 H   0  0  0  0  0  0  0  0  0  0  0  0
   -3.6405   -0.5880    1.4721 H   0  0  0  0  0  0  0  0  0  0  0  0
  1  2  2  0
  2  3  1  0
  3  4  1  0
  4  5  1  0
  5  6  1  0
  6  7  1  0
  7  8  2  0
  8  9  1  0
  9 10  2  0
 10 11  1  0
 11 12  2  0
 12 13  1  0
 13 14  2  0
 14 15  1  0
  2 16  1  0
 16 17  1  0
 17 18  1  0
 18 19  1  0
 19 20  1  0
 20 21  1  0
 21 22  1  0
 22 23  2  0
 23 24  1  0
 24 25  2  0
 20 26  1  0
 15  7  1  0
 26 16  1  0
 14  9  1  0
 25 21  1  0
  3 27  1  0
  4 28  1  0
  4 29  1  0
  5 30  1  0
  5 31  1  0
  6 32  1  0
  6 33  1  0
 10 34  1  0
 11 35  1  0
 12 36  1  0
 13 37  1  0
 15 38  1  0
 17 39  1  0
 17 40  1  0
 18 41  1  0
 18 42  1  0
 19 43  1  0
 19 44  1  0
 20 45  1  0
 22 46  1  0
 23 47  1  0
 25 48  1  0
 26 49  1  0
 26 50  1  0
M  END
$$$$
OCNT-2315568
     RDKit          3D

 36 38  0  0  0  0  0  0  0  0999 V2000
    7.1217    0.9826   -1.4440 F   0  0  0  0  0  0  0  0  0  0  0  0
    6.6694    0.4866   -0.2598 C   0  0  0  0  0  0  0  0  0  0  0  0
    7.0312    1.3953    0.6889 F   0  0  0  0  0  0  0  0  0  0  0  0
    7.4140   -0.6263   -0.0099 F   0  0  0  0  0  0  0  0  0  0  0  0
    5.1841    0.2163   -0.2813 C   0  0  0  0  0  0  0  0  0  0  0  0
    4.2701    1.2278    0.0513 C   0  0  0  0  0  0  0  0  0  0  0  0
    2.8915    0.9900    0.0130 C   0  0  0  0  0  0  0  0  0  0  0  0
    2.4074   -0.2683   -0.3674 C   0  0  0  0  0  0  0  0  0  0  0  0
    1.0137   -0.5333   -0.4132 N   0  0  0  0  0  0  0  0  0  0  0  0
   -0.0341    0.3058   -0.1254 C   0  0  0  0  0  0  0  0  0  0  0  0
   -1.1717   -0.4517   -0.3191 C   0  0  0  0  0  0  0  0  0  0  0  0
   -2.6170   -0.0703   -0.1801 C   0  0  0  0  0  0  0  0  0  0  0  0
   -3.5293   -1.2838    0.0838 C   0  0  0  0  0  0  0  0  0  0  0  0
   -4.9125   -0.8938    0.6149 C   0  0  0  0  0  0  0  0  0  0  0  0
   -5.2018    0.5814    0.3801 C   0  0  0  0  0  0  0  0  0  0  0  0
   -4.1072    1.4618    0.9898 C   0  0  0  0  0  0  0  0  0  0  0  0
   -2.7514    0.9060    0.9157 N   0  0  0  0  0  0  0  0  0  0  0  0
   -0.7959   -1.7017   -0.7324 N   0  0  0  0  0  0  0  0  0  0  0  0
    0.5279   -1.7451   -0.7791 N   0  0  0  0  0  0  0  0  0  0  0  0
    3.3157   -1.2812   -0.7096 C   0  0  0  0  0  0  0  0  0  0  0  0
    4.6918   -1.0377   -0.6695 C   0  0  0  0  0  0  0  0  0  0  0  0
    4.6316    2.2130    0.3459 H   0  0  0  0  0  0  0  0  0  0  0  0
    2.2279    1.8064    0.2841 H   0  0  0  0  0  0  0  0  0  0  0  0
    0.0863    1.3315    0.1836 H   0  0  0  0  0  0  0  0  0  0  0  0
   -2.9057    0.4092   -1.1255 H   0  0  0  0  0  0  0  0  0  0  0  0
   -3.6491   -1.8454   -0.8520 H   0  0  0  0  0  0  0  0  0  0  0  0
   -3.0683   -1.9801    0.7971 H   0  0  0  0  0  0  0  0  0  0  0  0
   -4.9558   -1.1008    1.6917 H   0  0  0  0  0  0  0  0  0  0  0  0
   -5.6839   -1.5155    0.1468 H   0  0  0  0  0  0  0  0  0  0  0  0
   -6.1743    0.8488    0.8087 H   0  0  0  0  0  0  0  0  0  0  0  0
   -5.2698    0.7692   -0.6990 H   0  0  0  0  0  0  0  0  0  0  0  0
   -4.1190    2.4389    0.4933 H   0  0  0  0  0  0  0  0  0  0  0  0
   -4.3393    1.6535    2.0443 H   0  0  0  0  0  0  0  0  0  0  0  0
   -2.5487    0.4171    1.7890 H   0  0  0  0  0  0  0  0  0  0  0  0
    2.9704   -2.2692   -1.0125 H   0  0  0  0  0  0  0  0  0  0  0  0
    5.3800   -1.8371   -0.9427 H   0  0  0  0  0  0  0  0  0  0  0  0
  1  2  1  0
  2  3  1  0
  2  4  1  0
  2  5  1  0
  5  6  1  0
  6  7  2  0
  7  8  1  0
  8  9  1  0
  9 10  1  0
 10 11  2  0
 11 12  1  0
 12 13  1  0
 13 14  1  0
 14 15  1  0
 15 16  1  0
 16 17  1  0
 11 18  1  0
 18 19  2  0
  8 20  2  0
 20 21  1  0
 21  5  2  0
 19  9  1  0
 17 12  1  0
  6 22  1  0
  7 23  1  0
 10 24  1  0
 12 25  1  0
 13 26  1  0
 13 27  1  0
 14 28  1  0
 14 29  1  0
 15 30  1  0
 15 31  1  0
 16 32  1  0
 16 33  1  0
 17 34  1  0
 20 35  1  0
 21 36  1  0
M  END
$$$$
OCNT-2315569
     RDKit          3D

 45 47  0  0  0  0  0  0  0  0999 V2000
    6.9338    0.3595    0.5890 C   0  0  0  0  0  0  0  0  0  0  0  0
    5.7437   -0.2290    1.2978 C   0  0  0  0  0  0  0  0  0  0  0  0
    5.8168   -0.6694    2.4401 O   0  0  0  0  0  0  0  0  0  0  0  0
    4.5868   -0.2248    0.5552 N   0  0  0  0  0  0  0  0  0  0  0  0
    3.3945   -0.9123    1.0249 C   0  0  0  0  0  0  0  0  0  0  0  0
    2.1431   -0.4120    0.2931 C   0  0  0  0  0  0  0  0  0  0  0  0
    0.8881   -1.1496    0.8108 C   0  0  0  0  0  0  0  0  0  0  0  0
   -0.3535   -0.8083    0.0825 N   0  0  0  0  0  0  0  0  0  0  0  0
   -0.8456    0.5280    0.4477 C   0  0  0  0  0  0  0  0  0  0  0  0
   -2.2275    0.7690   -0.0558 C   0  0  0  0  0  0  0  0  0  0  0  0
   -3.3443   -0.0260   -0.0708 C   0  0  0  0  0  0  0  0  0  0  0  0
   -3.8088   -1.3718    0.3030 C   0  0  0  0  0  0  0  0  0  0  0  0
   -5.3630   -1.2276    0.1512 C   0  0  0  0  0  0  0  0  0  0  0  0
   -5.6290    0.0125   -0.7697 C   0  0  0  0  0  0  0  0  0  0  0  0
   -4.3483    0.7316   -0.6616 C   0  0  0  0  0  0  0  0  0  0  0  0
   -3.9613    1.9467   -1.0157 N   0  0  0  0  0  0  0  0  0  0  0  0
   -2.6576    1.9600   -0.6221 N   0  0  0  0  0  0  0  0  0  0  0  0
   -1.8813    3.1603   -0.8290 C   0  0  0  0  0  0  0  0  0  0  0  0
   -0.0989   -0.9590   -1.3672 C   0  0  0  0  0  0  0  0  0  0  0  0
    1.1664   -0.2380   -1.8595 C   0  0  0  0  0  0  0  0  0  0  0  0
    2.3258   -0.6443   -1.1204 O   0  0  0  0  0  0  0  0  0  0  0  0
    7.6386   -0.4408    0.3489 H   0  0  0  0  0  0  0  0  0  0  0  0
    7.4137    1.0916    1.2444 H   0  0  0  0  0  0  0  0  0  0  0  0
    6.6436    0.8664   -0.3356 H   0  0  0  0  0  0  0  0  0  0  0  0
    4.6631   -0.1260   -0.4512 H   0  0  0  0  0  0  0  0  0  0  0  0
    3.5578   -1.9787    0.8304 H   0  0  0  0  0  0  0  0  0  0  0  0
    3.2970   -0.7695    2.1066 H   0  0  0  0  0  0  0  0  0  0  0  0
    2.0514    0.6703    0.4500 H   0  0  0  0  0  0  0  0  0  0  0  0
    0.7578   -0.9769    1.8862 H   0  0  0  0  0  0  0  0  0  0  0  0
    1.0399   -2.2314    0.6962 H   0  0  0  0  0  0  0  0  0  0  0  0
   -0.1592    1.3121    0.1130 H   0  0  0  0  0  0  0  0  0  0  0  0
   -0.8961    0.6071    1.5419 H   0  0  0  0  0  0  0  0  0  0  0  0
   -3.5364   -1.6514    1.3242 H   0  0  0  0  0  0  0  0  0  0  0  0
   -3.4268   -2.1230   -0.3958 H   0  0  0  0  0  0  0  0  0  0  0  0
   -5.7987   -1.0341    1.1405 H   0  0  0  0  0  0  0  0  0  0  0  0
   -5.8266   -2.1392   -0.2385 H   0  0  0  0  0  0  0  0  0  0  0  0
   -5.8093   -0.3089   -1.8004 H   0  0  0  0  0  0  0  0  0  0  0  0
   -6.4818    0.5952   -0.4117 H   0  0  0  0  0  0  0  0  0  0  0  0
   -2.5328    3.9600   -1.1909 H   0  0  0  0  0  0  0  0  0  0  0  0
   -1.1088    2.9441   -1.5710 H   0  0  0  0  0  0  0  0  0  0  0  0
   -1.4348    3.4537    0.1242 H   0  0  0  0  0  0  0  0  0  0  0  0
   -0.9628   -0.6451   -1.9632 H   0  0  0  0  0  0  0  0  0  0  0  0
    0.0218   -2.0328   -1.5620 H   0  0  0  0  0  0  0  0  0  0  0  0
    1.0641    0.8512   -1.7975 H   0  0  0  0  0  0  0  0  0  0  0  0
    1.3455   -0.4893   -2.9099 H   0  0  0  0  0  0  0  0  0  0  0  0
  1  2  1  0
  2  3  2  0
  2  4  1  0
  4  5  1  0
  5  6  1  0
  6  7  1  0
  7  8  1  0
  8  9  1  0
  9 10  1  0
 10 11  2  0
 11 12  1  0
 12 13  1  0
 13 14  1  0
 14 15  1  0
 15 16  2  0
 16 17  1  0
 17 18  1  0
  8 19  1  0
 19 20  1  0
 20 21  1  0
 21  6  1  0
 17 10  1  0
 15 11  1  0
  1 22  1  0
  1 23  1  0
  1 24  1  0
  4 25  1  0
  5 26  1  0
  5 27  1  0
  6 28  1  0
  7 29  1  0
  7 30  1  0
  9 31  1  0
  9 32  1  0
 12 33  1  0
 12 34  1  0
 13 35  1  0
 13 36  1  0
 14 37  1  0
 14 38  1  0
 18 39  1  0
 18 40  1  0
 18 41  1  0
 19 42  1  0
 19 43  1  0
 20 44  1  0
 20 45  1  0
M  END
$$$$
OCNT-2315573
     RDKit          3D

 45 47  0  0  0  0  0  0  0  0999 V2000
   -7.3743   -0.1008    0.4921 C   0  0  0  0  0  0  0  0  0  0  0  0
   -6.5729    0.5882   -0.6028 C   0  0  0  0  0  0  0  0  0  0  0  0
   -5.0851    0.4332   -0.3997 C   0  0  0  0  0  0  0  0  0  0  0  0
   -4.3931    1.4220    0.3103 C   0  0  0  0  0  0  0  0  0  0  0  0
   -3.0163    1.3116    0.5352 C   0  0  0  0  0  0  0  0  0  0  0  0
   -2.2735    0.2186    0.0637 C   0  0  0  0  0  0  0  0  0  0  0  0
   -0.8956    0.1586    0.3300 N   0  0  0  0  0  0  0  0  0  0  0  0
   -0.2126   -1.1440    0.1680 C   0  0  0  0  0  0  0  0  0  0  0  0
    1.2185   -1.0873    0.7437 C   0  0  0  0  0  0  0  0  0  0  0  0
    2.0189    0.0099    0.1266 N   0  0  0  0  0  0  0  0  0  0  0  0
    3.4139   -0.0798    0.0894 C   0  0  0  0  0  0  0  0  0  0  0  0
    4.2421    0.9174    0.4320 C   0  0  0  0  0  0  0  0  0  0  0  0
    5.7068    0.7566    0.3560 C   0  0  0  0  0  0  0  0  0  0  0  0
    6.4209    1.7195    0.6286 O   0  0  0  0  0  0  0  0  0  0  0  0
    6.1701   -0.4822   -0.0282 N   0  0  0  0  0  0  0  0  0  0  0  0
    7.5993   -0.6907   -0.1298 C   0  0  0  0  0  0  0  0  0  0  0  0
    5.3285   -1.4880   -0.4509 C   0  0  0  0  0  0  0  0  0  0  0  0
    5.7109   -2.5638   -0.9094 O   0  0  0  0  0  0  0  0  0  0  0  0
    3.9908   -1.2367   -0.3486 N   0  0  0  0  0  0  0  0  0  0  0  0
    1.3179    1.3177    0.2579 C   0  0  0  0  0  0  0  0  0  0  0  0
   -0.1246    1.2633   -0.2951 C   0  0  0  0  0  0  0  0  0  0  0  0
   -2.9776   -0.7759   -0.6266 C   0  0  0  0  0  0  0  0  0  0  0  0
   -4.3584   -0.6732   -0.8583 C   0  0  0  0  0  0  0  0  0  0  0  0
   -5.1153   -1.9633   -1.7278 Cl  0  0  0  0  0  0  0  0  0  0  0  0
   -8.4462    0.0412    0.3213 H   0  0  0  0  0  0  0  0  0  0  0  0
   -7.1761   -1.1771    0.5200 H   0  0  0  0  0  0  0  0  0  0  0  0
   -7.1315    0.3097    1.4782 H   0  0  0  0  0  0  0  0  0  0  0  0
   -6.8694    0.2083   -1.5868 H   0  0  0  0  0  0  0  0  0  0  0  0
   -6.8299    1.6551   -0.6186 H   0  0  0  0  0  0  0  0  0  0  0  0
   -4.9216    2.2869    0.7064 H   0  0  0  0  0  0  0  0  0  0  0  0
   -2.5250    2.0876    1.1183 H   0  0  0  0  0  0  0  0  0  0  0  0
   -0.7612   -1.9299    0.7013 H   0  0  0  0  0  0  0  0  0  0  0  0
   -0.1584   -1.4135   -0.8947 H   0  0  0  0  0  0  0  0  0  0  0  0
    1.1770   -0.9221    1.8280 H   0  0  0  0  0  0  0  0  0  0  0  0
    1.6884   -2.0634    0.5827 H   0  0  0  0  0  0  0  0  0  0  0  0
    3.9043    1.8798    0.7892 H   0  0  0  0  0  0  0  0  0  0  0  0
    7.9110   -0.4425   -1.1493 H   0  0  0  0  0  0  0  0  0  0  0  0
    8.1418   -0.0515    0.5728 H   0  0  0  0  0  0  0  0  0  0  0  0
    7.8524   -1.7361    0.0715 H   0  0  0  0  0  0  0  0  0  0  0  0
    3.3935   -1.9706   -0.6984 H   0  0  0  0  0  0  0  0  0  0  0  0
    1.8539    2.0944   -0.3002 H   0  0  0  0  0  0  0  0  0  0  0  0
    1.3004    1.6097    1.3154 H   0  0  0  0  0  0  0  0  0  0  0  0
   -0.0927    1.1129   -1.3825 H   0  0  0  0  0  0  0  0  0  0  0  0
   -0.5878    2.2388   -0.1090 H   0  0  0  0  0  0  0  0  0  0  0  0
   -2.4624   -1.6487   -1.0147 H   0  0  0  0  0  0  0  0  0  0  0  0
  1  2  1  0
  2  3  1  0
  3  4  1  0
  4  5  2  0
  5  6  1  0
  6  7  1  0
  7  8  1  0
  8  9  1  0
  9 10  1  0
 10 11  1  0
 11 12  2  0
 12 13  1  0
 13 14  2  0
 13 15  1  0
 15 16  1  0
 15 17  1  0
 17 18  2  0
 17 19  1  0
 10 20  1  0
 20 21  1  0
  6 22  2  0
 22 23  1  0
 23 24  1  0
 23  3  2  0
 21  7  1  0
 19 11  1  0
  1 25  1  0
  1 26  1  0
  1 27  1  0
  2 28  1  0
  2 29  1  0
  4 30  1  0
  5 31  1  0
  8 32  1  0
  8 33  1  0
  9 34  1  0
  9 35  1  0
 12 36  1  0
 16 37  1  0
 16 38  1  0
 16 39  1  0
 19 40  1  0
 20 41  1  0
 20 42  1  0
 21 43  1  0
 21 44  1  0
 22 45  1  0
M  END
$$$$
OCNT-2315584
     RDKit          3D

 48 50  0  0  0  0  0  0  0  0999 V2000
    6.1160   -0.8058   -1.5213 C   0  0  0  0  0  0  0  0  0  0  0  0
    6.0108   -0.0571   -0.1780 C   0  0  0  0  0  0  0  0  0  0  0  0
    7.0950   -0.6271    0.7626 C   0  0  0  0  0  0  0  0  0  0  0  0
    6.3200    1.4372   -0.3964 C   0  0  0  0  0  0  0  0  0  0  0  0
    4.6196   -0.2325    0.4236 C   0  0  0  0  0  0  0  0  0  0  0  0
    4.2265   -0.8066    1.6219 C   0  0  0  0  0  0  0  0  0  0  0  0
    2.8696   -0.8132    1.8833 N   0  0  0  0  0  0  0  0  0  0  0  0
    2.2331   -0.2276    0.8973 C   0  0  0  0  0  0  0  0  0  0  0  0
    0.8665   -0.1285    0.9056 N   0  0  0  0  0  0  0  0  0  0  0  0
    0.0890    0.6424    0.0807 C   0  0  0  0  0  0  0  0  0  0  0  0
    0.5090    1.4547   -0.7386 O   0  0  0  0  0  0  0  0  0  0  0  0
   -1.2865    0.4473    0.2540 N   0  0  0  0  0  0  0  0  0  0  0  0
   -2.1985    1.3194   -0.4849 C   0  0  0  0  0  0  0  0  0  0  0  0
   -3.5209    1.5091    0.2508 C   0  0  0  0  0  0  0  0  0  0  0  0
   -4.2198    0.1742    0.5786 C   0  0  0  0  0  0  0  0  0  0  0  0
   -5.4806   -0.0486   -0.2377 C   0  0  0  0  0  0  0  0  0  0  0  0
   -5.4665   -0.0610   -1.6369 C   0  0  0  0  0  0  0  0  0  0  0  0
   -6.6558   -0.2766   -2.3180 C   0  0  0  0  0  0  0  0  0  0  0  0
   -7.8436   -0.4798   -1.7119 N   0  0  0  0  0  0  0  0  0  0  0  0
   -7.8409   -0.4669   -0.3631 C   0  0  0  0  0  0  0  0  0  0  0  0
   -6.7048   -0.2603    0.4058 C   0  0  0  0  0  0  0  0  0  0  0  0
   -3.2715   -1.0309    0.4645 C   0  0  0  0  0  0  0  0  0  0  0  0
   -1.8760   -0.6860    0.9707 C   0  0  0  0  0  0  0  0  0  0  0  0
    3.1982    0.3112   -0.3929 S   0  0  0  0  0  0  0  0  0  0  0  0
    5.4353   -0.3940   -2.2748 H   0  0  0  0  0  0  0  0  0  0  0  0
    7.1300   -0.7390   -1.9324 H   0  0  0  0  0  0  0  0  0  0  0  0
    5.8729   -1.8684   -1.4033 H   0  0  0  0  0  0  0  0  0  0  0  0
    6.9482   -1.6987    0.9423 H   0  0  0  0  0  0  0  0  0  0  0  0
    7.0896   -0.1210    1.7352 H   0  0  0  0  0  0  0  0  0  0  0  0
    8.0966   -0.5020    0.3346 H   0  0  0  0  0  0  0  0  0  0  0  0
    5.6440    1.8934   -1.1282 H   0  0  0  0  0  0  0  0  0  0  0  0
    6.2243    2.0028    0.5381 H   0  0  0  0  0  0  0  0  0  0  0  0
    7.3412    1.5789   -0.7691 H   0  0  0  0  0  0  0  0  0  0  0  0
    4.8923   -1.2456    2.3553 H   0  0  0  0  0  0  0  0  0  0  0  0
    0.4599   -0.4866    1.7522 H   0  0  0  0  0  0  0  0  0  0  0  0
   -2.3568    0.8699   -1.4718 H   0  0  0  0  0  0  0  0  0  0  0  0
   -1.7316    2.2975   -0.6461 H   0  0  0  0  0  0  0  0  0  0  0  0
   -4.1725    2.1859   -0.3143 H   0  0  0  0  0  0  0  0  0  0  0  0
   -3.3049    2.0206    1.1992 H   0  0  0  0  0  0  0  0  0  0  0  0
   -4.5224    0.2458    1.6335 H   0  0  0  0  0  0  0  0  0  0  0  0
   -4.5522    0.0902   -2.2000 H   0  0  0  0  0  0  0  0  0  0  0  0
   -6.6822   -0.2926   -3.4040 H   0  0  0  0  0  0  0  0  0  0  0  0
   -8.8081   -0.6329    0.1026 H   0  0  0  0  0  0  0  0  0  0  0  0
   -6.7845   -0.2655    1.4879 H   0  0  0  0  0  0  0  0  0  0  0  0
   -3.6764   -1.8779    1.0320 H   0  0  0  0  0  0  0  0  0  0  0  0
   -3.1920   -1.3695   -0.5769 H   0  0  0  0  0  0  0  0  0  0  0  0
   -1.2282   -1.5631    0.8680 H   0  0  0  0  0  0  0  0  0  0  0  0
   -1.9104   -0.4153    2.0324 H   0  0  0  0  0  0  0  0  0  0  0  0
  1  2  1  0
  2  3  1  0
  2  4  1  0
  2  5  1  0
  5  6  2  0
  6  7  1  0
  7  8  2  0
  8  9  1  0
  9 10  1  0
 10 11  2  0
 10 12  1  0
 12 13  1  0
 13 14  1  0
 14 15  1  0
 15 16  1  0
 16 17  2  0
 17 18  1  0
 18 19  2  0
 19 20  1  0
 20 21  2  0
 15 22  1  0
 22 23  1  0
  8 24  1  0
 24  5  1  0
 23 12  1  0
 21 16  1  0
  1 25  1  0
  1 26  1  0
  1 27  1  0
  3 28  1  0
  3 29  1  0
  3 30  1  0
  4 31  1  0
  4 32  1  0
  4 33  1  0
  6 34  1  0
  9 35  1  0
 13 36  1  0
 13 37  1  0
 14 38  1  0
 14 39  1  0
 15 40  1  0
 17 41  1  0
 18 42  1  0
 20 43  1  0
 21 44  1  0
 22 45  1  0
 22 46  1  0
 23 47  1  0
 23 48  1  0
M  END
$$$$
OCNT-2315585
     RDKit          3D

 48 50  0  0  0  0  0  0  0  0999 V2000
    6.4498    0.5916    2.1185 C   0  0  0  0  0  0  0  0  0  0  0  0
    6.5626    0.1048    0.6714 C   0  0  0  0  0  0  0  0  0  0  0  0
    7.9249    0.5026    0.0993 C   0  0  0  0  0  0  0  0  0  0  0  0
    5.4361    0.6793   -0.2019 C   0  0  0  0  0  0  0  0  0  0  0  0
    4.0695    0.0576    0.0664 C   0  0  0  0  0  0  0  0  0  0  0  0
    3.9255   -0.9269    0.7809 O   0  0  0  0  0  0  0  0  0  0  0  0
    3.0687    0.7319   -0.6171 N   0  0  0  0  0  0  0  0  0  0  0  0
    1.6875    0.4505   -0.6159 C   0  0  0  0  0  0  0  0  0  0  0  0
    1.0966   -0.5718    0.1217 C   0  0  0  0  0  0  0  0  0  0  0  0
   -0.2899   -0.7845    0.0682 C   0  0  0  0  0  0  0  0  0  0  0  0
   -1.1160   -0.0035   -0.7438 C   0  0  0  0  0  0  0  0  0  0  0  0
   -2.5079   -0.1178   -0.7800 N   0  0  0  0  0  0  0  0  0  0  0  0
   -3.1446   -1.3515   -0.3431 C   0  0  0  0  0  0  0  0  0  0  0  0
   -4.6381   -1.2229   -0.5259 C   0  0  0  0  0  0  0  0  0  0  0  0
   -5.3036   -2.0701   -1.4416 C   0  0  0  0  0  0  0  0  0  0  0  0
   -6.6819   -2.0058   -1.6557 C   0  0  0  0  0  0  0  0  0  0  0  0
   -7.4654   -1.0833   -0.9610 C   0  0  0  0  0  0  0  0  0  0  0  0
   -6.8399   -0.2238   -0.0482 C   0  0  0  0  0  0  0  0  0  0  0  0
   -5.4631   -0.3006    0.1568 C   0  0  0  0  0  0  0  0  0  0  0  0
   -5.2525    0.6861    1.0917 N   0  0  0  0  0  0  0  0  0  0  0  0
   -4.0250    1.1177    1.7070 C   0  0  0  0  0  0  0  0  0  0  0  0
   -6.3982    1.3093    1.4324 N   0  0  0  0  0  0  0  0  0  0  0  0
   -7.3796    0.7551    0.7384 N   0  0  0  0  0  0  0  0  0  0  0  0
   -0.5162    1.0467   -1.4490 C   0  0  0  0  0  0  0  0  0  0  0  0
    0.8663    1.2653   -1.3986 C   0  0  0  0  0  0  0  0  0  0  0  0
    7.2556    0.1726    2.7308 H   0  0  0  0  0  0  0  0  0  0  0  0
    5.5007    0.2875    2.5703 H   0  0  0  0  0  0  0  0  0  0  0  0
    6.5164    1.6835    2.1765 H   0  0  0  0  0  0  0  0  0  0  0  0
    6.5048   -0.9908    0.6711 H   0  0  0  0  0  0  0  0  0  0  0  0
    8.7376    0.0893    0.7061 H   0  0  0  0  0  0  0  0  0  0  0  0
    8.0447    0.1220   -0.9206 H   0  0  0  0  0  0  0  0  0  0  0  0
    8.0422    1.5913    0.0713 H   0  0  0  0  0  0  0  0  0  0  0  0
    5.3681    1.7652   -0.0618 H   0  0  0  0  0  0  0  0  0  0  0  0
    5.6606    0.4924   -1.2599 H   0  0  0  0  0  0  0  0  0  0  0  0
    3.3594    1.5132   -1.1910 H   0  0  0  0  0  0  0  0  0  0  0  0
    1.6809   -1.2238    0.7635 H   0  0  0  0  0  0  0  0  0  0  0  0
   -0.6938   -1.5822    0.6839 H   0  0  0  0  0  0  0  0  0  0  0  0
   -2.8890    0.2142   -1.6645 H   0  0  0  0  0  0  0  0  0  0  0  0
   -2.7615   -2.1989   -0.9247 H   0  0  0  0  0  0  0  0  0  0  0  0
   -2.9481   -1.5584    0.7146 H   0  0  0  0  0  0  0  0  0  0  0  0
   -4.7311   -2.8052   -2.0079 H   0  0  0  0  0  0  0  0  0  0  0  0
   -7.1516   -2.6789   -2.3695 H   0  0  0  0  0  0  0  0  0  0  0  0
   -8.5366   -1.0235   -1.1196 H   0  0  0  0  0  0  0  0  0  0  0  0
   -4.2558    1.7240    2.5878 H   0  0  0  0  0  0  0  0  0  0  0  0
   -3.4526    0.2452    2.0249 H   0  0  0  0  0  0  0  0  0  0  0  0
   -3.4697    1.7220    0.9872 H   0  0  0  0  0  0  0  0  0  0  0  0
   -1.1270    1.7156   -2.0511 H   0  0  0  0  0  0  0  0  0  0  0  0
    1.2802    2.0874   -1.9760 H   0  0  0  0  0  0  0  0  0  0  0  0
  1  2  1  0
  2  3  1  0
  2  4  1  0
  4  5  1  0
  5  6  2  0
  5  7  1  0
  7  8  1  0
  8  9  1  0
  9 10  2  0
 10 11  1  0
 11 12  1  0
 12 13  1  0
 13 14  1  0
 14 15  1  0
 15 16  2  0
 16 17  1  0
 17 18  2  0
 18 19  1  0
 19 20  1  0
 20 21  1  0
 20 22  1  0
 22 23  2  0
 11 24  2  0
 24 25  1  0
 25  8  2  0
 19 14  2  0
 23 18  1  0
  1 26  1  0
  1 27  1  0
  1 28  1  0
  2 29  1  0
  3 30  1  0
  3 31  1  0
  3 32  1  0
  4 33  1  0
  4 34  1  0
  7 35  1  0
  9 36  1  0
 10 37  1  0
 12 38  1  0
 13 39  1  0
 13 40  1  0
 15 41  1  0
 16 42  1  0
 17 43  1  0
 21 44  1  0
 21 45  1  0
 21 46  1  0
 24 47  1  0
 25 48  1  0
M  END
$$$$
OCNT-2315612
     RDKit          3D

 45 49  0  0  0  0  0  0  0  0999 V2000
    6.2554    3.1888    0.4451 O   0  0  0  0  0  0  0  0  0  0  0  0
    5.7752    2.1091    0.1680 C   0  0  0  0  0  0  0  0  0  0  0  0
    6.2866    1.1420   -0.6415 N   0  0  0  0  0  0  0  0  0  0  0  0
    5.4619    0.0646   -0.7478 C   0  0  0  0  0  0  0  0  0  0  0  0
    5.6215   -0.9406   -1.4086 O   0  0  0  0  0  0  0  0  0  0  0  0
    4.2997    0.3494    0.0932 C   0  0  0  0  0  0  0  0  0  0  0  0
    3.1735   -0.4050    0.3500 C   0  0  0  0  0  0  0  0  0  0  0  0
    2.2226    0.1641    1.2085 C   0  0  0  0  0  0  0  0  0  0  0  0
    0.7493   -0.7733    1.5824 S   0  0  0  0  0  0  0  0  0  0  0  0
   -0.1044    0.0659    2.3981 O   0  0  0  0  0  0  0  0  0  0  0  0
    1.2133   -2.0619    2.0495 O   0  0  0  0  0  0  0  0  0  0  0  0
    0.0407   -0.9211    0.0377 N   0  0  0  0  0  0  0  0  0  0  0  0
   -0.4365    0.3545   -0.5975 C   0  0  0  0  0  0  0  0  0  0  0  0
   -1.9811    0.2717   -0.6874 C   0  0  0  0  0  0  0  0  0  0  0  0
   -2.6776    1.0995    0.4014 C   0  0  0  0  0  0  0  0  0  0  0  0
   -4.0782    1.3592   -0.1416 C   0  0  0  0  0  0  0  0  0  0  0  0
   -3.9427    1.3649   -1.6620 C   0  0  0  0  0  0  0  0  0  0  0  0
   -2.5263    0.8829   -1.9817 C   0  0  0  0  0  0  0  0  0  0  0  0
   -2.2103   -1.2105   -0.5258 C   0  0  0  0  0  0  0  0  0  0  0  0
   -3.3630   -1.9552   -0.7429 C   0  0  0  0  0  0  0  0  0  0  0  0
   -3.3418   -3.3270   -0.4752 C   0  0  0  0  0  0  0  0  0  0  0  0
   -2.1774   -3.9436    0.0009 C   0  0  0  0  0  0  0  0  0  0  0  0
   -1.0187   -3.1956    0.2115 C   0  0  0  0  0  0  0  0  0  0  0  0
   -1.0574   -1.8359   -0.0492 C   0  0  0  0  0  0  0  0  0  0  0  0
    2.4122    1.4403    1.7882 C   0  0  0  0  0  0  0  0  0  0  0  0
    3.5669    2.1783    1.5058 C   0  0  0  0  0  0  0  0  0  0  0  0
    4.4912    1.6037    0.6537 C   0  0  0  0  0  0  0  0  0  0  0  0
    7.1658    1.2242   -1.1267 H   0  0  0  0  0  0  0  0  0  0  0  0
    3.0391   -1.3890   -0.0896 H   0  0  0  0  0  0  0  0  0  0  0  0
    0.0141    0.3897   -1.5987 H   0  0  0  0  0  0  0  0  0  0  0  0
   -0.0967    1.2497   -0.0681 H   0  0  0  0  0  0  0  0  0  0  0  0
   -2.1704    2.0635    0.5346 H   0  0  0  0  0  0  0  0  0  0  0  0
   -2.7137    0.6048    1.3776 H   0  0  0  0  0  0  0  0  0  0  0  0
   -4.7636    0.5640    0.1721 H   0  0  0  0  0  0  0  0  0  0  0  0
   -4.4874    2.3025    0.2341 H   0  0  0  0  0  0  0  0  0  0  0  0
   -4.6948    0.7106   -2.1159 H   0  0  0  0  0  0  0  0  0  0  0  0
   -4.1051    2.3692   -2.0685 H   0  0  0  0  0  0  0  0  0  0  0  0
   -1.9243    1.7537   -2.2724 H   0  0  0  0  0  0  0  0  0  0  0  0
   -2.5195    0.1866   -2.8272 H   0  0  0  0  0  0  0  0  0  0  0  0
   -4.2763   -1.4973   -1.1072 H   0  0  0  0  0  0  0  0  0  0  0  0
   -4.2376   -3.9227   -0.6364 H   0  0  0  0  0  0  0  0  0  0  0  0
   -2.1738   -5.0124    0.2013 H   0  0  0  0  0  0  0  0  0  0  0  0
   -0.1117   -3.6807    0.5568 H   0  0  0  0  0  0  0  0  0  0  0  0
    1.6646    1.8552    2.4636 H   0  0  0  0  0  0  0  0  0  0  0  0
    3.7367    3.1591    1.9398 H   0  0  0  0  0  0  0  0  0  0  0  0
  1  2  2  0
  2  3  1  0
  3  4  1  0
  4  5  2  0
  4  6  1  0
  6  7  1  0
  7  8  2  0
  8  9  1  0
  9 10  2  0
  9 11  2  0
  9 12  1  0
 12 13  1  0
 13 14  1  0
 14 15  1  0
 15 16  1  0
 16 17  1  0
 17 18  1  0
 14 19  1  0
 19 20  2  0
 20 21  1  0
 21 22  2  0
 22 23  1  0
 23 24  2  0
  8 25  1  0
 25 26  2  0
 26 27  1  0
 27  2  1  0
 27  6  2  0
 24 12  1  0
 18 14  1  0
 24 19  1  0
  3 28  1  0
  7 29  1  0
 13 30  1  0
 13 31  1  0
 15 32  1  0
 15 33  1  0
 16 34  1  0
 16 35  1  0
 17 36  1  0
 17 37  1  0
 18 38  1  0
 18 39  1  0
 20 40  1  0
 21 41  1  0
 22 42  1  0
 23 43  1  0
 25 44  1  0
 26 45  1  0
M  END
$$$$
OCNT-2315622
     RDKit          3D

  0  0  0  0  0  0  0  0  0  0999 V3000
M  V30 BEGIN CTAB
M  V30 COUNTS 51 54 0 0 0
M  V30 BEGIN ATOM
M  V30 1 C -2.238269 2.952947 0.135285 0
M  V30 2 C -2.813305 1.581864 0.219406 0
M  V30 3 C -2.396664 0.469933 -0.503082 0
M  V30 4 C -1.300121 0.357397 -1.514225 0
M  V30 5 N -0.209653 -0.426974 -0.944997 0
M  V30 6 C 0.956368 -0.488082 -1.831326 0 CFG=2
M  V30 7 C 1.940077 -1.539461 -1.299782 0
M  V30 8 C 2.729055 -0.829634 -0.188860 0
M  V30 9 C 4.152040 -1.380751 -0.070896 0
M  V30 10 N 4.861816 -0.879126 1.089104 0
M  V30 11 C 4.696974 -1.298169 2.379617 0
M  V30 12 C 5.593589 -0.553467 3.109829 0
M  V30 13 N 6.300002 0.293516 2.295438 0
M  V30 14 C 5.843389 0.069584 1.083579 0
M  V30 15 C 2.669312 0.672229 -0.537933 0
M  V30 16 C 1.845359 0.772605 -1.822089 0 CFG=1
M  V30 17 O 2.745135 0.746417 -2.931543 0
M  V30 18 N -3.189691 -0.594408 -0.120866 0
M  V30 19 C -3.064063 -1.951709 -0.612250 0
M  V30 20 C -4.103317 -0.195678 0.835756 0
M  V30 21 C -5.092232 -0.916593 1.528543 0
M  V30 22 C -5.887169 -0.233342 2.453144 0
M  V30 23 C -5.702898 1.124300 2.685375 0
M  V30 24 C -4.712251 1.832150 1.997525 0
M  V30 25 C -3.894439 1.166592 1.058280 0
M  V30 26 H -1.147878 2.918703 0.229835 0
M  V30 27 H -2.488775 3.409346 -0.827713 0
M  V30 28 H -2.618062 3.603784 0.928121 0
M  V30 29 H -0.958317 1.360565 -1.790695 0
M  V30 30 H -1.680434 -0.110286 -2.429402 0
M  V30 31 H 0.037500 -0.022511 -0.041323 0
M  V30 32 H 0.651861 -0.771255 -2.845892 0
M  V30 33 H 1.441700 -2.442997 -0.930272 0
M  V30 34 H 2.610410 -1.855127 -2.110018 0
M  V30 35 H 2.204246 -0.980498 0.764311 0
M  V30 36 H 4.132865 -2.473399 0.023560 0
M  V30 37 H 4.746191 -1.140571 -0.960701 0
M  V30 38 H 3.983354 -2.058242 2.664325 0
M  V30 39 H 5.770073 -0.583848 4.177138 0
M  V30 40 H 6.182768 0.563368 0.182032 0
M  V30 41 H 2.159602 1.202469 0.275493 0
M  V30 42 H 3.660555 1.119645 -0.660627 0
M  V30 43 H 1.288286 1.712510 -1.870333 0
M  V30 44 H 2.215683 0.879831 -3.737530 0
M  V30 45 H -2.332391 -2.471737 0.010829 0
M  V30 46 H -4.032967 -2.453218 -0.559283 0
M  V30 47 H -2.744892 -1.941284 -1.656085 0
M  V30 48 H -5.245871 -1.977197 1.359988 0
M  V30 49 H -6.659249 -0.772808 2.996774 0
M  V30 50 H -6.329624 1.641047 3.407572 0
M  V30 51 H -4.575678 2.891568 2.191906 0
M  V30 END ATOM
M  V30 BEGIN BOND
M  V30 1 1 1 2
M  V30 2 2 2 3
M  V30 3 1 3 4
M  V30 4 1 4 5
M  V30 5 1 5 6
M  V30 6 1 6 7
M  V30 7 1 7 8
M  V30 8 1 8 9
M  V30 9 1 9 10
M  V30 10 1 10 11
M  V30 11 2 11 12
M  V30 12 1 12 13
M  V30 13 2 13 14
M  V30 14 1 8 15
M  V30 15 1 15 16
M  V30 16 1 16 17
M  V30 17 1 3 18
M  V30 18 1 18 19
M  V30 19 1 18 20
M  V30 20 2 20 21
M  V30 21 1 21 22
M  V30 22 2 22 23
M  V30 23 1 23 24
M  V30 24 2 24 25
M  V30 25 1 25 2
M  V30 26 1 16 6
M  V30 27 1 25 20
M  V30 28 1 14 10
M  V30 29 1 1 26
M  V30 30 1 1 27
M  V30 31 1 1 28
M  V30 32 1 4 29
M  V30 33 1 4 30
M  V30 34 1 5 31
M  V30 35 1 6 32 CFG=3
M  V30 36 1 7 33
M  V30 37 1 7 34
M  V30 38 1 8 35
M  V30 39 1 9 36
M  V30 40 1 9 37
M  V30 41 1 11 38
M  V30 42 1 12 39
M  V30 43 1 14 40
M  V30 44 1 15 41
M  V30 45 1 15 42
M  V30 46 1 16 43 CFG=1
M  V30 47 1 17 44
M  V30 48 1 19 45
M  V30 49 1 19 46
M  V30 50 1 19 47
M  V30 51 1 21 48
M  V30 52 1 22 49
M  V30 53 1 23 50
M  V30 54 1 24 51
M  V30 END BOND
M  V30 BEGIN COLLECTION
M  V30 MDLV30/STERAC1 ATOMS=(2 6 16)
M  V30 END COLLECTION
M  V30 END CTAB
M  END
>  <_CXSMILES_Data>  (998) 
|&1:5,15|

$$$$
OCNT-2315627
     RDKit          3D

 47 51  0  0  0  0  0  0  0  0999 V2000
    8.9617   -0.0057    0.7135 F   0  0  0  0  0  0  0  0  0  0  0  0
    7.6564    0.0099    0.4111 C   0  0  0  0  0  0  0  0  0  0  0  0
    6.7569   -0.6090    1.2792 C   0  0  0  0  0  0  0  0  0  0  0  0
    5.3827   -0.6156    1.0001 C   0  0  0  0  0  0  0  0  0  0  0  0
    4.9409    0.0168   -0.1764 C   0  0  0  0  0  0  0  0  0  0  0  0
    5.8753    0.6182   -1.0030 C   0  0  0  0  0  0  0  0  0  0  0  0
    7.2439    0.6440   -0.7586 C   0  0  0  0  0  0  0  0  0  0  0  0
    5.2422    1.1692   -2.0712 O   0  0  0  0  0  0  0  0  0  0  0  0
    3.8797    0.9450   -1.9701 N   0  0  0  0  0  0  0  0  0  0  0  0
    3.7045    0.2498   -0.8361 C   0  0  0  0  0  0  0  0  0  0  0  0
    2.3314   -0.1678   -0.4002 C   0  0  0  0  0  0  0  0  0  0  0  0
    1.5525    1.0037    0.2237 C   0  0  0  0  0  0  0  0  0  0  0  0
    0.0470    0.9321   -0.0406 C   0  0  0  0  0  0  0  0  0  0  0  0
   -0.3926   -0.4643    0.0120 N   0  0  0  0  0  0  0  0  0  0  0  0
   -1.7830   -0.6248    0.1713 C   0  0  0  0  0  0  0  0  0  0  0  0
   -2.3574   -1.8876    0.3580 C   0  0  0  0  0  0  0  0  0  0  0  0
   -3.6864   -2.1154    0.5168 N   0  0  0  0  0  0  0  0  0  0  0  0
   -4.4681   -1.0123    0.5099 C   0  0  0  0  0  0  0  0  0  0  0  0
   -5.9502   -1.2311    0.6362 C   0  0  0  0  0  0  0  0  0  0  0  0
   -6.7153    0.0342    1.0180 C   0  0  0  0  0  0  0  0  0  0  0  0
   -6.2672    1.2069    0.1528 C   0  0  0  0  0  0  0  0  0  0  0  0
   -4.7842    1.4955    0.3751 C   0  0  0  0  0  0  0  0  0  0  0  0
   -3.9256    0.2612    0.3325 C   0  0  0  0  0  0  0  0  0  0  0  0
   -2.5893    0.4601    0.1752 N   0  0  0  0  0  0  0  0  0  0  0  0
    0.1946   -1.3613   -0.9955 C   0  0  0  0  0  0  0  0  0  0  0  0
    1.5269   -0.8279   -1.5245 C   0  0  0  0  0  0  0  0  0  0  0  0
    7.1340   -1.0877    2.1792 H   0  0  0  0  0  0  0  0  0  0  0  0
    4.6853   -1.0967    1.6794 H   0  0  0  0  0  0  0  0  0  0  0  0
    7.9431    1.1244   -1.4292 H   0  0  0  0  0  0  0  0  0  0  0  0
    2.4565   -0.9295    0.3836 H   0  0  0  0  0  0  0  0  0  0  0  0
    1.7322    0.9962    1.3074 H   0  0  0  0  0  0  0  0  0  0  0  0
    1.9197    1.9755   -0.1301 H   0  0  0  0  0  0  0  0  0  0  0  0
   -0.1876    1.3694   -1.0201 H   0  0  0  0  0  0  0  0  0  0  0  0
   -0.4453    1.5477    0.7234 H   0  0  0  0  0  0  0  0  0  0  0  0
   -1.7440   -2.7803    0.4011 H   0  0  0  0  0  0  0  0  0  0  0  0
   -6.3181   -1.5999   -0.3293 H   0  0  0  0  0  0  0  0  0  0  0  0
   -6.1459   -2.0118    1.3803 H   0  0  0  0  0  0  0  0  0  0  0  0
   -7.7912   -0.1352    0.8985 H   0  0  0  0  0  0  0  0  0  0  0  0
   -6.5417    0.2711    2.0754 H   0  0  0  0  0  0  0  0  0  0  0  0
   -6.8562    2.0996    0.3906 H   0  0  0  0  0  0  0  0  0  0  0  0
   -6.4481    0.9734   -0.9041 H   0  0  0  0  0  0  0  0  0  0  0  0
   -4.6490    1.9637    1.3579 H   0  0  0  0  0  0  0  0  0  0  0  0
   -4.4372    2.2118   -0.3785 H   0  0  0  0  0  0  0  0  0  0  0  0
   -0.4802   -1.5100   -1.8488 H   0  0  0  0  0  0  0  0  0  0  0  0
    0.3711   -2.3411   -0.5349 H   0  0  0  0  0  0  0  0  0  0  0  0
    1.3337   -0.1025   -2.3264 H   0  0  0  0  0  0  0  0  0  0  0  0
    2.0913   -1.6486   -1.9845 H   0  0  0  0  0  0  0  0  0  0  0  0
  1  2  1  0
  2  3  2  0
  3  4  1  0
  4  5  2  0
  5  6  1  0
  6  7  2  0
  6  8  1  0
  8  9  1  0
  9 10  2  0
 10 11  1  0
 11 12  1  0
 12 13  1  0
 13 14  1  0
 14 15  1  0
 15 16  1  0
 16 17  2  0
 17 18  1  0
 18 19  1  0
 19 20  1  0
 20 21  1  0
 21 22  1  0
 22 23  1  0
 23 24  1  0
 14 25  1  0
 25 26  1  0
  7  2  1  0
 26 11  1  0
 10  5  1  0
 24 15  2  0
 23 18  2  0
  3 27  1  0
  4 28  1  0
  7 29  1  0
 11 30  1  0
 12 31  1  0
 12 32  1  0
 13 33  1  0
 13 34  1  0
 16 35  1  0
 19 36  1  0
 19 37  1  0
 20 38  1  0
 20 39  1  0
 21 40  1  0
 21 41  1  0
 22 42  1  0
 22 43  1  0
 25 44  1  0
 25 45  1  0
 26 46  1  0
 26 47  1  0
M  END
$$$$
OCNT-2315629
     RDKit          3D

 44 48  0  0  0  0  0  0  0  0999 V2000
    4.2320   -0.9479    1.8585 C   0  0  0  0  0  0  0  0  0  0  0  0
    3.7289   -0.1889    0.6563 C   0  0  0  0  0  0  0  0  0  0  0  0
    2.3469   -0.2939    0.3765 C   0  0  0  0  0  0  0  0  0  0  0  0
    1.7475    0.3601   -0.7091 C   0  0  0  0  0  0  0  0  0  0  0  0
    0.3154    0.2098   -0.9419 C   0  0  0  0  0  0  0  0  0  0  0  0
   -0.5810   -0.4706   -0.2608 N   0  0  0  0  0  0  0  0  0  0  0  0
   -1.7338   -0.2222   -0.9659 C   0  0  0  0  0  0  0  0  0  0  0  0
   -3.1382   -0.8017   -0.5266 C   0  0  0  0  0  0  0  0  0  0  0  0
   -3.8647    0.2501    0.4486 C   0  0  0  0  0  0  0  0  0  0  0  0
   -3.6589    0.2486    1.8406 C   0  0  0  0  0  0  0  0  0  0  0  0
   -4.3004    1.1793    2.6470 C   0  0  0  0  0  0  0  0  0  0  0  0
   -5.1350    2.1261    2.1786 N   0  0  0  0  0  0  0  0  0  0  0  0
   -5.3242    2.1467    0.8458 C   0  0  0  0  0  0  0  0  0  0  0  0
   -4.7240    1.2546   -0.0330 C   0  0  0  0  0  0  0  0  0  0  0  0
   -3.9599   -1.3838   -1.7352 C   0  0  0  0  0  0  0  0  0  0  0  0
   -4.3375   -2.5699   -0.8299 C   0  0  0  0  0  0  0  0  0  0  0  0
   -3.0394   -2.2980   -0.0491 C   0  0  0  0  0  0  0  0  0  0  0  0
   -1.5792    0.5694   -2.0365 N   0  0  0  0  0  0  0  0  0  0  0  0
   -0.2137    0.8571   -2.0240 O   0  0  0  0  0  0  0  0  0  0  0  0
    2.5590    1.1404   -1.5341 C   0  0  0  0  0  0  0  0  0  0  0  0
    3.9312    1.2632   -1.2815 C   0  0  0  0  0  0  0  0  0  0  0  0
    4.5360    0.6060   -0.1913 C   0  0  0  0  0  0  0  0  0  0  0  0
    5.9398    0.7725    0.0087 N   0  0  0  0  0  0  0  0  0  0  0  0
    6.8391    1.5126   -0.7270 C   0  0  0  0  0  0  0  0  0  0  0  0
    8.0397    1.3970   -0.2084 N   0  0  0  0  0  0  0  0  0  0  0  0
    7.8954    0.5724    0.8702 N   0  0  0  0  0  0  0  0  0  0  0  0
    6.6353    0.1903    1.0106 N   0  0  0  0  0  0  0  0  0  0  0  0
    4.6541   -0.2618    2.5991 H   0  0  0  0  0  0  0  0  0  0  0  0
    3.4220   -1.4885    2.3616 H   0  0  0  0  0  0  0  0  0  0  0  0
    4.9685   -1.7000    1.5594 H   0  0  0  0  0  0  0  0  0  0  0  0
    1.7168   -0.9049    1.0260 H   0  0  0  0  0  0  0  0  0  0  0  0
   -2.9879   -0.4726    2.2980 H   0  0  0  0  0  0  0  0  0  0  0  0
   -4.1483    1.1854    3.7226 H   0  0  0  0  0  0  0  0  0  0  0  0
   -5.9892    2.9253    0.4832 H   0  0  0  0  0  0  0  0  0  0  0  0
   -4.9186    1.3517   -1.0971 H   0  0  0  0  0  0  0  0  0  0  0  0
   -3.3573   -1.6813   -2.6030 H   0  0  0  0  0  0  0  0  0  0  0  0
   -4.8071   -0.7958   -2.0975 H   0  0  0  0  0  0  0  0  0  0  0  0
   -4.4011   -3.5431   -1.3228 H   0  0  0  0  0  0  0  0  0  0  0  0
   -5.2497   -2.4083   -0.2443 H   0  0  0  0  0  0  0  0  0  0  0  0
   -2.1768   -2.8514   -0.4421 H   0  0  0  0  0  0  0  0  0  0  0  0
   -3.1023   -2.4884    1.0254 H   0  0  0  0  0  0  0  0  0  0  0  0
    2.1377    1.6682   -2.3887 H   0  0  0  0  0  0  0  0  0  0  0  0
    4.4933    1.8886   -1.9702 H   0  0  0  0  0  0  0  0  0  0  0  0
    6.5897    2.0975   -1.5966 H   0  0  0  0  0  0  0  0  0  0  0  0
  1  2  1  0
  2  3  1  0
  3  4  2  0
  4  5  1  0
  5  6  2  0
  6  7  1  0
  7  8  1  0
  8  9  1  0
  9 10  2  0
 10 11  1  0
 11 12  2  0
 12 13  1  0
 13 14  2  0
  8 15  1  0
 15 16  1  0
 16 17  1  0
  7 18  2  0
 18 19  1  0
  4 20  1  0
 20 21  2  0
 21 22  1  0
 22 23  1  0
 23 24  1  0
 24 25  2  0
 25 26  1  0
 26 27  2  0
 22  2  2  0
 27 23  1  0
 19  5  1  0
 17  8  1  0
 14  9  1  0
  1 28  1  0
  1 29  1  0
  1 30  1  0
  3 31  1  0
 10 32  1  0
 11 33  1  0
 13 34  1  0
 14 35  1  0
 15 36  1  0
 15 37  1  0
 16 38  1  0
 16 39  1  0
 17 40  1  0
 17 41  1  0
 20 42  1  0
 21 43  1  0
 24 44  1  0
M  END
$$$$
