OCNT-2313100
     RDKit          3D

 44 46  0  0  0  0  0  0  0  0999 V2000
    6.6269    2.4680    0.3275 C   0  0  0  0  0  0  0  0  0  0  0  0
    5.5519    1.6278   -0.0894 O   0  0  0  0  0  0  0  0  0  0  0  0
    5.7307    0.3123    0.2116 C   0  0  0  0  0  0  0  0  0  0  0  0
    6.7063   -0.1556    0.7847 O   0  0  0  0  0  0  0  0  0  0  0  0
    4.6025   -0.4628   -0.2415 C   0  0  0  0  0  0  0  0  0  0  0  0
    3.4403   -0.0897   -0.8959 C   0  0  0  0  0  0  0  0  0  0  0  0
    2.6442   -1.2527   -1.1101 C   0  0  0  0  0  0  0  0  0  0  0  0
    1.3097   -1.3119   -1.7863 C   0  0  0  0  0  0  0  0  0  0  0  0
    0.2501   -1.5101   -0.7927 N   0  0  0  0  0  0  0  0  0  0  0  0
   -0.1186   -0.2395   -0.1523 C   0  0  2  0  0  0  0  0  0  0  0  0
   -1.2128   -0.5239    0.8983 C   0  0  0  0  0  0  0  0  0  0  0  0
   -2.2920   -0.3311   -0.2102 C   0  0  1  0  0  0  0  0  0  0  0  0
   -3.6732    0.3753    0.1834 C   0  0  0  0  0  0  0  0  0  0  0  0
   -4.1080    1.5485   -0.4736 C   0  0  0  0  0  0  0  0  0  0  0  0
   -5.3039    2.1946   -0.1501 C   0  0  0  0  0  0  0  0  0  0  0  0
   -6.1181    1.6816    0.8481 C   0  0  0  0  0  0  0  0  0  0  0  0
   -5.7402    0.5183    1.5097 C   0  0  0  0  0  0  0  0  0  0  0  0
   -4.5435   -0.1441    1.1781 C   0  0  0  0  0  0  0  0  0  0  0  0
   -4.1929   -1.4018    1.9293 C   0  0  0  0  0  0  0  0  0  0  0  0
   -1.2033    0.4692   -0.9902 C   0  0  0  0  0  0  0  0  0  0  0  0
    3.3610   -2.3107   -0.5818 C   0  0  0  0  0  0  0  0  0  0  0  0
    4.5302   -1.8256   -0.0610 N   0  0  0  0  0  0  0  0  0  0  0  0
    6.7438    2.4312    1.4152 H   0  0  0  0  0  0  0  0  0  0  0  0
    7.5565    2.1792   -0.1730 H   0  0  0  0  0  0  0  0  0  0  0  0
    6.3851    3.4952    0.0407 H   0  0  0  0  0  0  0  0  0  0  0  0
    3.1858    0.9225   -1.1874 H   0  0  0  0  0  0  0  0  0  0  0  0
    1.3000   -2.1658   -2.4740 H   0  0  0  0  0  0  0  0  0  0  0  0
    1.1370   -0.4194   -2.3989 H   0  0  0  0  0  0  0  0  0  0  0  0
    0.5692   -2.2217   -0.1357 H   0  0  0  0  0  0  0  0  0  0  0  0
    0.7067    0.3800    0.2080 H   0  0  0  0  0  0  0  0  0  0  0  0
   -1.2525    0.2390    1.6868 H   0  0  0  0  0  0  0  0  0  0  0  0
   -1.1923   -1.5057    1.3821 H   0  0  0  0  0  0  0  0  0  0  0  0
   -2.5096   -1.2816   -0.7234 H   0  0  0  0  0  0  0  0  0  0  0  0
   -3.4974    1.9745   -1.2673 H   0  0  0  0  0  0  0  0  0  0  0  0
   -5.5934    3.0973   -0.6810 H   0  0  0  0  0  0  0  0  0  0  0  0
   -7.0471    2.1808    1.1079 H   0  0  0  0  0  0  0  0  0  0  0  0
   -6.3889    0.1208    2.2874 H   0  0  0  0  0  0  0  0  0  0  0  0
   -3.4451   -1.1847    2.6977 H   0  0  0  0  0  0  0  0  0  0  0  0
   -3.8105   -2.1697    1.2497 H   0  0  0  0  0  0  0  0  0  0  0  0
   -5.0735   -1.8281    2.4223 H   0  0  0  0  0  0  0  0  0  0  0  0
   -1.2167    1.5512   -0.8078 H   0  0  0  0  0  0  0  0  0  0  0  0
   -1.1915    0.3116   -2.0732 H   0  0  0  0  0  0  0  0  0  0  0  0
    3.1357   -3.3683   -0.5347 H   0  0  0  0  0  0  0  0  0  0  0  0
    5.2512   -2.3744    0.3924 H   0  0  0  0  0  0  0  0  0  0  0  0
  1  2  1  0
  2  3  1  0
  3  4  2  0
  3  5  1  0
  5  6  2  0
  6  7  1  0
  7  8  1  0
  8  9  1  0
  9 10  1  0
 10 11  1  0
 11 12  1  0
 12 13  1  0
 13 14  2  0
 14 15  1  0
 15 16  2  0
 16 17  1  0
 17 18  2  0
 18 19  1  0
 12 20  1  0
  7 21  2  0
 21 22  1  0
 22  5  1  0
 20 10  1  0
 18 13  1  0
  1 23  1  0
  1 24  1  0
  1 25  1  0
  6 26  1  0
  8 27  1  0
  8 28  1  0
  9 29  1  0
 10 30  1  1
 11 31  1  0
 11 32  1  0
 12 33  1  6
 14 34  1  0
 15 35  1  0
 16 36  1  0
 17 37  1  0
 19 38  1  0
 19 39  1  0
 19 40  1  0
 20 41  1  0
 20 42  1  0
 21 43  1  0
 22 44  1  0
M  END
$$$$
OCNT-2313101
     RDKit          3D

 42 44  0  0  0  0  0  0  0  0999 V2000
   -2.4260    1.6358    2.2055 O   0  0  0  0  0  0  0  0  0  0  0  0
   -1.0902    1.2457    1.8919 C   0  0  0  0  0  0  0  0  0  0  0  0
   -0.9176    0.6111    0.4634 C   0  0  0  0  0  0  0  0  0  0  0  0
    0.4777    0.1385    0.2473 N   0  0  0  0  0  0  0  0  0  0  0  0
    1.5308    1.1450    0.3290 C   0  0  0  0  0  0  0  0  0  0  0  0
    2.8778    0.5061    0.0783 C   0  0  0  0  0  0  0  0  0  0  0  0
    3.2651    0.1618   -1.2255 C   0  0  0  0  0  0  0  0  0  0  0  0
    4.4994   -0.4392   -1.4562 C   0  0  0  0  0  0  0  0  0  0  0  0
    4.8233   -0.7448   -2.7453 O   0  0  0  0  0  0  0  0  0  0  0  0
    5.3666   -0.7166   -0.4058 C   0  0  0  0  0  0  0  0  0  0  0  0
    4.9810   -0.3860    0.8920 C   0  0  0  0  0  0  0  0  0  0  0  0
    6.0386   -0.7287    2.2071 Cl  0  0  0  0  0  0  0  0  0  0  0  0
    3.7472    0.2188    1.1407 C   0  0  0  0  0  0  0  0  0  0  0  0
   -1.2323    1.6654   -0.6382 C   0  0  0  0  0  0  0  0  0  0  0  0
   -2.7152    1.8407   -0.9291 C   0  0  0  0  0  0  0  0  0  0  0  0
   -3.2986    0.5267   -1.4198 C   0  0  0  0  0  0  0  0  0  0  0  0
   -2.9830   -0.6226   -0.4982 C   0  0  0  0  0  0  0  0  0  0  0  0
   -3.8212   -1.7512   -0.5458 C   0  0  0  0  0  0  0  0  0  0  0  0
   -3.5864   -2.8536    0.2711 C   0  0  0  0  0  0  0  0  0  0  0  0
   -2.5069   -2.8452    1.1435 C   0  0  0  0  0  0  0  0  0  0  0  0
   -1.6582   -1.7380    1.1906 C   0  0  0  0  0  0  0  0  0  0  0  0
   -1.8648   -0.6111    0.3631 C   0  0  0  0  0  0  0  0  0  0  0  0
   -2.9859    0.8423    2.1178 H   0  0  0  0  0  0  0  0  0  0  0  0
   -0.4809    2.1502    1.9874 H   0  0  0  0  0  0  0  0  0  0  0  0
   -0.7588    0.5550    2.6761 H   0  0  0  0  0  0  0  0  0  0  0  0
    0.6971   -0.6120    0.8966 H   0  0  0  0  0  0  0  0  0  0  0  0
    1.5487    1.6247    1.3134 H   0  0  0  0  0  0  0  0  0  0  0  0
    1.3950    1.9395   -0.4130 H   0  0  0  0  0  0  0  0  0  0  0  0
    2.5976    0.3545   -2.0629 H   0  0  0  0  0  0  0  0  0  0  0  0
    5.6923   -1.1784   -2.7594 H   0  0  0  0  0  0  0  0  0  0  0  0
    6.3288   -1.1851   -0.5821 H   0  0  0  0  0  0  0  0  0  0  0  0
    3.4646    0.4658    2.1611 H   0  0  0  0  0  0  0  0  0  0  0  0
   -0.7502    1.3715   -1.5825 H   0  0  0  0  0  0  0  0  0  0  0  0
   -0.8059    2.6401   -0.3692 H   0  0  0  0  0  0  0  0  0  0  0  0
   -3.2517    2.1927   -0.0429 H   0  0  0  0  0  0  0  0  0  0  0  0
   -2.8519    2.6082   -1.7000 H   0  0  0  0  0  0  0  0  0  0  0  0
   -4.3846    0.6437   -1.5187 H   0  0  0  0  0  0  0  0  0  0  0  0
   -2.9012    0.2896   -2.4146 H   0  0  0  0  0  0  0  0  0  0  0  0
   -4.6696   -1.7723   -1.2274 H   0  0  0  0  0  0  0  0  0  0  0  0
   -4.2447   -3.7168    0.2239 H   0  0  0  0  0  0  0  0  0  0  0  0
   -2.3194   -3.7022    1.7851 H   0  0  0  0  0  0  0  0  0  0  0  0
   -0.8263   -1.7696    1.8900 H   0  0  0  0  0  0  0  0  0  0  0  0
  1  2  1  0
  2  3  1  0
  3  4  1  0
  4  5  1  0
  5  6  1  0
  6  7  1  0
  7  8  2  0
  8  9  1  0
  8 10  1  0
 10 11  2  0
 11 12  1  0
 11 13  1  0
  3 14  1  0
 14 15  1  0
 15 16  1  0
 16 17  1  0
 17 18  2  0
 18 19  1  0
 19 20  2  0
 20 21  1  0
 21 22  2  0
 22  3  1  0
 13  6  2  0
 22 17  1  0
  1 23  1  0
  2 24  1  0
  2 25  1  0
  4 26  1  0
  5 27  1  0
  5 28  1  0
  7 29  1  0
  9 30  1  0
 10 31  1  0
 13 32  1  0
 14 33  1  0
 14 34  1  0
 15 35  1  0
 15 36  1  0
 16 37  1  0
 16 38  1  0
 18 39  1  0
 19 40  1  0
 20 41  1  0
 21 42  1  0
M  END
$$$$
OCNT-2313106
     RDKit          3D

 52 55  0  0  0  0  0  0  0  0999 V2000
    1.7325    1.2326   -1.1735 O   0  0  0  0  0  0  0  0  0  0  0  0
    1.6275    0.6153   -0.1208 C   0  0  0  0  0  0  0  0  0  0  0  0
    0.6064    0.8147    0.7836 N   0  0  0  0  0  0  0  0  0  0  0  0
   -0.5770    1.5792    0.4160 C   0  0  0  0  0  0  0  0  0  0  0  0
   -1.5851    0.7313   -0.4201 C   0  0  0  0  0  0  0  0  0  0  0  0
   -2.7787    1.5508   -0.9057 C   0  0  0  0  0  0  0  0  0  0  0  0
   -3.1919    1.4419   -2.2463 C   0  0  0  0  0  0  0  0  0  0  0  0
   -4.2793    2.1745   -2.7284 C   0  0  0  0  0  0  0  0  0  0  0  0
   -4.9747    3.0304   -1.8776 C   0  0  0  0  0  0  0  0  0  0  0  0
   -4.5775    3.1496   -0.5491 C   0  0  0  0  0  0  0  0  0  0  0  0
   -5.4361    4.2030    0.5075 Cl  0  0  0  0  0  0  0  0  0  0  0  0
   -3.4899    2.4211   -0.0629 C   0  0  0  0  0  0  0  0  0  0  0  0
   -1.9181   -0.5506    0.2622 N   0  0  0  0  0  0  0  0  0  0  0  0
   -2.5014   -1.5512   -0.6529 C   0  0  0  0  0  0  0  0  0  0  0  0
   -2.6898   -2.8997    0.0615 C   0  0  0  0  0  0  0  0  0  0  0  0
   -3.5168   -2.7636    1.2245 O   0  0  0  0  0  0  0  0  0  0  0  0
   -2.9464   -1.8106    2.1301 C   0  0  0  0  0  0  0  0  0  0  0  0
   -2.7687   -0.4369    1.4592 C   0  0  0  0  0  0  0  0  0  0  0  0
    2.6192   -0.4242    0.2517 C   0  0  0  0  0  0  0  0  0  0  0  0
    2.2067   -1.6513    0.7956 C   0  0  0  0  0  0  0  0  0  0  0  0
    3.1485   -2.6415    1.1201 C   0  0  0  0  0  0  0  0  0  0  0  0
    4.5104   -2.4264    0.9000 C   0  0  0  0  0  0  0  0  0  0  0  0
    4.9093   -1.2140    0.3607 C   0  0  0  0  0  0  0  0  0  0  0  0
    3.9766   -0.2197    0.0346 C   0  0  0  0  0  0  0  0  0  0  0  0
    4.6655    0.9653   -0.5726 C   0  0  0  0  0  0  0  0  0  0  0  0
    6.1174    0.7307   -0.1323 C   0  0  0  0  0  0  0  0  0  0  0  0
    6.2971   -0.7870   -0.0047 C   0  0  0  0  0  0  0  0  0  0  0  0
    0.5130    0.1821    1.5654 H   0  0  0  0  0  0  0  0  0  0  0  0
   -1.0175    1.9371    1.3518 H   0  0  0  0  0  0  0  0  0  0  0  0
   -0.2630    2.4592   -0.1586 H   0  0  0  0  0  0  0  0  0  0  0  0
   -1.0128    0.4526   -1.3175 H   0  0  0  0  0  0  0  0  0  0  0  0
   -2.6610    0.7814   -2.9305 H   0  0  0  0  0  0  0  0  0  0  0  0
   -4.5815    2.0773   -3.7683 H   0  0  0  0  0  0  0  0  0  0  0  0
   -5.8204    3.5987   -2.2547 H   0  0  0  0  0  0  0  0  0  0  0  0
   -3.2099    2.5329    0.9809 H   0  0  0  0  0  0  0  0  0  0  0  0
   -3.4775   -1.2110   -1.0192 H   0  0  0  0  0  0  0  0  0  0  0  0
   -1.8453   -1.7061   -1.5169 H   0  0  0  0  0  0  0  0  0  0  0  0
   -3.1803   -3.6101   -0.6116 H   0  0  0  0  0  0  0  0  0  0  0  0
   -1.7248   -3.3310    0.3545 H   0  0  0  0  0  0  0  0  0  0  0  0
   -3.6250   -1.7197    2.9844 H   0  0  0  0  0  0  0  0  0  0  0  0
   -1.9901   -2.1957    2.5046 H   0  0  0  0  0  0  0  0  0  0  0  0
   -2.3249    0.2455    2.1908 H   0  0  0  0  0  0  0  0  0  0  0  0
   -3.7621   -0.0591    1.1915 H   0  0  0  0  0  0  0  0  0  0  0  0
    1.1505   -1.8660    0.9390 H   0  0  0  0  0  0  0  0  0  0  0  0
    2.8126   -3.5911    1.5305 H   0  0  0  0  0  0  0  0  0  0  0  0
    5.2364   -3.1983    1.1368 H   0  0  0  0  0  0  0  0  0  0  0  0
    4.5755    0.9362   -1.6634 H   0  0  0  0  0  0  0  0  0  0  0  0
    4.2898    1.9174   -0.1876 H   0  0  0  0  0  0  0  0  0  0  0  0
    6.8404    1.1813   -0.8194 H   0  0  0  0  0  0  0  0  0  0  0  0
    6.2738    1.1953    0.8513 H   0  0  0  0  0  0  0  0  0  0  0  0
    7.0299   -1.0389    0.7669 H   0  0  0  0  0  0  0  0  0  0  0  0
    6.5887   -1.2337   -0.9608 H   0  0  0  0  0  0  0  0  0  0  0  0
  1  2  2  0
  2  3  1  0
  3  4  1  0
  4  5  1  0
  5  6  1  0
  6  7  2  0
  7  8  1  0
  8  9  2  0
  9 10  1  0
 10 11  1  0
 10 12  2  0
  5 13  1  0
 13 14  1  0
 14 15  1  0
 15 16  1  0
 16 17  1  0
 17 18  1  0
  2 19  1  0
 19 20  1  0
 20 21  2  0
 21 22  1  0
 22 23  2  0
 23 24  1  0
 24 25  1  0
 25 26  1  0
 26 27  1  0
 12  6  1  0
 18 13  1  0
 24 19  2  0
 27 23  1  0
  3 28  1  0
  4 29  1  0
  4 30  1  0
  5 31  1  0
  7 32  1  0
  8 33  1  0
  9 34  1  0
 12 35  1  0
 14 36  1  0
 14 37  1  0
 15 38  1  0
 15 39  1  0
 17 40  1  0
 17 41  1  0
 18 42  1  0
 18 43  1  0
 20 44  1  0
 21 45  1  0
 22 46  1  0
 25 47  1  0
 25 48  1  0
 26 49  1  0
 26 50  1  0
 27 51  1  0
 27 52  1  0
M  END
$$$$
OCNT-2313107
     RDKit          3D

 36 38  0  0  0  0  0  0  0  0999 V2000
   -3.1055   -0.9501   -0.9289 N   0  0  0  0  0  0  0  0  0  0  0  0
   -3.8297    0.3630   -1.6916 S   0  0  0  0  0  0  0  0  0  0  0  0
   -3.2793    0.3863   -3.0276 O   0  0  0  0  0  0  0  0  0  0  0  0
   -5.2469    0.2645   -1.4327 O   0  0  0  0  0  0  0  0  0  0  0  0
   -3.2657    1.8559   -0.9060 C   0  0  0  0  0  0  0  0  0  0  0  0
   -2.2882    2.1251    0.0474 C   0  0  0  0  0  0  0  0  0  0  0  0
   -1.4174    1.1096    0.7268 C   0  0  0  0  0  0  0  0  0  0  0  0
   -0.6399    0.4123   -0.3039 N   0  0  0  0  0  0  0  0  0  0  0  0
    0.3146   -0.5407    0.2869 C   0  0  0  0  0  0  0  0  0  0  0  0
    1.0138   -1.3856   -0.8100 C   0  0  0  0  0  0  0  0  0  0  0  0
    2.2797   -1.7849   -0.1155 C   0  0  0  0  0  0  0  0  0  0  0  0
    3.1603   -2.7954   -0.4650 C   0  0  0  0  0  0  0  0  0  0  0  0
    4.3113   -2.9672    0.3087 C   0  0  0  0  0  0  0  0  0  0  0  0
    4.5649   -2.1236    1.4010 C   0  0  0  0  0  0  0  0  0  0  0  0
    5.9955   -2.3512    2.3324 Cl  0  0  0  0  0  0  0  0  0  0  0  0
    3.6798   -1.0989    1.7409 C   0  0  0  0  0  0  0  0  0  0  0  0
    2.5358   -0.9458    0.9748 C   0  0  0  0  0  0  0  0  0  0  0  0
    1.4651    0.0915    1.1135 C   0  0  0  0  0  0  0  0  0  0  0  0
   -2.2158    3.5363    0.3177 C   0  0  0  0  0  0  0  0  0  0  0  0
   -3.1120    4.2696   -0.4246 C   0  0  0  0  0  0  0  0  0  0  0  0
   -4.0451    3.2810   -1.4528 S   0  0  0  0  0  0  0  0  0  0  0  0
   -3.3419   -1.8002   -1.4387 H   0  0  0  0  0  0  0  0  0  0  0  0
   -2.0895   -0.7874   -0.9149 H   0  0  0  0  0  0  0  0  0  0  0  0
   -2.0431    0.4081    1.2903 H   0  0  0  0  0  0  0  0  0  0  0  0
   -0.7573    1.6161    1.4401 H   0  0  0  0  0  0  0  0  0  0  0  0
   -0.1147    1.1124   -0.8363 H   0  0  0  0  0  0  0  0  0  0  0  0
   -0.2362   -1.2409    0.9336 H   0  0  0  0  0  0  0  0  0  0  0  0
    0.4036   -2.2479   -1.0958 H   0  0  0  0  0  0  0  0  0  0  0  0
    1.2550   -0.7906   -1.6982 H   0  0  0  0  0  0  0  0  0  0  0  0
    2.9686   -3.4388   -1.3183 H   0  0  0  0  0  0  0  0  0  0  0  0
    5.0150   -3.7561    0.0548 H   0  0  0  0  0  0  0  0  0  0  0  0
    3.8842   -0.4410    2.5792 H   0  0  0  0  0  0  0  0  0  0  0  0
    1.1700    0.2446    2.1559 H   0  0  0  0  0  0  0  0  0  0  0  0
    1.8091    1.0372    0.6802 H   0  0  0  0  0  0  0  0  0  0  0  0
   -1.5346    3.9916    1.0275 H   0  0  0  0  0  0  0  0  0  0  0  0
   -3.2634    5.3407   -0.4141 H   0  0  0  0  0  0  0  0  0  0  0  0
  1  2  1  0
  2  3  2  0
  2  4  2  0
  2  5  1  0
  5  6  2  0
  6  7  1  0
  7  8  1  0
  8  9  1  0
  9 10  1  0
 10 11  1  0
 11 12  1  0
 12 13  2  0
 13 14  1  0
 14 15  1  0
 14 16  2  0
 16 17  1  0
 17 18  1  0
  6 19  1  0
 19 20  2  0
 20 21  1  0
 21  5  1  0
 18  9  1  0
 17 11  2  0
  1 22  1  0
  1 23  1  0
  7 24  1  0
  7 25  1  0
  8 26  1  0
  9 27  1  0
 10 28  1  0
 10 29  1  0
 12 30  1  0
 13 31  1  0
 16 32  1  0
 18 33  1  0
 18 34  1  0
 19 35  1  0
 20 36  1  0
M  END
$$$$
OCNT-2313117
     RDKit          3D

 40 42  0  0  0  0  0  0  0  0999 V2000
   -4.2720   -3.0305    1.0009 C   0  0  0  0  0  0  0  0  0  0  0  0
   -4.4703   -1.6226    1.2551 N   0  0  0  0  0  0  0  0  0  0  0  0
   -5.6567   -1.0622    1.6320 C   0  0  0  0  0  0  0  0  0  0  0  0
   -5.5464    0.2340    1.7927 N   0  0  0  0  0  0  0  0  0  0  0  0
   -4.2370    0.5178    1.5088 C   0  0  0  0  0  0  0  0  0  0  0  0
   -3.5226   -0.6193    1.1635 C   0  0  0  0  0  0  0  0  0  0  0  0
   -2.1320   -0.8086    0.7867 C   0  0  0  0  0  0  0  0  0  0  0  0
   -1.6862   -1.9208    0.5194 O   0  0  0  0  0  0  0  0  0  0  0  0
   -1.3823    0.3590    0.7548 N   0  0  0  0  0  0  0  0  0  0  0  0
   -0.0360    0.3945    0.4196 C   0  0  0  0  0  0  0  0  0  0  0  0
    0.8538   -0.5976    0.0686 C   0  0  0  0  0  0  0  0  0  0  0  0
    2.0984    0.0406   -0.1872 C   0  0  0  0  0  0  0  0  0  0  0  0
    3.3709   -0.5684   -0.5979 C   0  0  0  0  0  0  0  0  0  0  0  0
    3.4893   -1.9542   -0.7884 C   0  0  0  0  0  0  0  0  0  0  0  0
    4.7078   -2.5219   -1.1800 C   0  0  0  0  0  0  0  0  0  0  0  0
    5.8192   -1.7086   -1.3846 C   0  0  0  0  0  0  0  0  0  0  0  0
    7.3149   -2.4083   -1.8663 Cl  0  0  0  0  0  0  0  0  0  0  0  0
    5.7246   -0.3327   -1.2010 C   0  0  0  0  0  0  0  0  0  0  0  0
    4.5063    0.2324   -0.8095 C   0  0  0  0  0  0  0  0  0  0  0  0
    1.9795    1.3658   -0.0070 N   0  0  0  0  0  0  0  0  0  0  0  0
    0.7038    1.5520    0.3753 N   0  0  0  0  0  0  0  0  0  0  0  0
    0.2615    2.9027    0.6513 C   0  0  0  0  0  0  0  0  0  0  0  0
   -0.2312    3.5986   -0.6072 C   0  0  0  0  0  0  0  0  0  0  0  0
   -0.9077    4.8005   -0.2494 O   0  0  0  0  0  0  0  0  0  0  0  0
   -5.2142   -3.5644    1.1528 H   0  0  0  0  0  0  0  0  0  0  0  0
   -3.5235   -3.4100    1.7010 H   0  0  0  0  0  0  0  0  0  0  0  0
   -3.9474   -3.1566   -0.0350 H   0  0  0  0  0  0  0  0  0  0  0  0
   -6.5629   -1.6375    1.7745 H   0  0  0  0  0  0  0  0  0  0  0  0
   -3.8893    1.5404    1.5731 H   0  0  0  0  0  0  0  0  0  0  0  0
   -1.8423    1.2267    0.9854 H   0  0  0  0  0  0  0  0  0  0  0  0
    0.6383   -1.6537   -0.0013 H   0  0  0  0  0  0  0  0  0  0  0  0
    2.6411   -2.6165   -0.6365 H   0  0  0  0  0  0  0  0  0  0  0  0
    4.7792   -3.5971   -1.3220 H   0  0  0  0  0  0  0  0  0  0  0  0
    6.5881    0.3076   -1.3581 H   0  0  0  0  0  0  0  0  0  0  0  0
    4.4486    1.3106   -0.6687 H   0  0  0  0  0  0  0  0  0  0  0  0
   -0.5186    2.8673    1.4193 H   0  0  0  0  0  0  0  0  0  0  0  0
    1.0976    3.4557    1.0961 H   0  0  0  0  0  0  0  0  0  0  0  0
    0.6060    3.8462   -1.2684 H   0  0  0  0  0  0  0  0  0  0  0  0
   -0.9352    2.9694   -1.1620 H   0  0  0  0  0  0  0  0  0  0  0  0
   -1.1151    5.2697   -1.0778 H   0  0  0  0  0  0  0  0  0  0  0  0
  1  2  1  0
  2  3  1  0
  3  4  2  0
  4  5  1  0
  5  6  2  0
  6  7  1  0
  7  8  2  0
  7  9  1  0
  9 10  1  0
 10 11  2  0
 11 12  1  0
 12 13  1  0
 13 14  1  0
 14 15  2  0
 15 16  1  0
 16 17  1  0
 16 18  2  0
 18 19  1  0
 12 20  2  0
 20 21  1  0
 21 22  1  0
 22 23  1  0
 23 24  1  0
  6  2  1  0
 21 10  1  0
 19 13  2  0
  1 25  1  0
  1 26  1  0
  1 27  1  0
  3 28  1  0
  5 29  1  0
  9 30  1  0
 11 31  1  0
 14 32  1  0
 15 33  1  0
 18 34  1  0
 19 35  1  0
 22 36  1  0
 22 37  1  0
 23 38  1  0
 23 39  1  0
 24 40  1  0
M  END
$$$$
OCNT-2313122
     RDKit          3D

 45 47  0  0  0  0  0  0  0  0999 V2000
    0.8140    1.1707    2.0106 O   0  0  0  0  0  0  0  0  0  0  0  0
    0.6265    0.6744    0.9036 C   0  0  0  0  0  0  0  0  0  0  0  0
   -0.4655   -0.1173    0.6063 N   0  0  0  0  0  0  0  0  0  0  0  0
   -1.5798   -0.2098    1.5155 C   0  0  0  0  0  0  0  0  0  0  0  0
   -2.5885   -1.2281    1.0398 C   0  0  0  0  0  0  0  0  0  0  0  0
   -2.5673   -2.5118    1.6170 C   0  0  0  0  0  0  0  0  0  0  0  0
   -3.4598   -3.4998    1.2031 C   0  0  0  0  0  0  0  0  0  0  0  0
   -4.3824   -3.2242    0.2007 C   0  0  0  0  0  0  0  0  0  0  0  0
   -4.4094   -1.9611   -0.3909 C   0  0  0  0  0  0  0  0  0  0  0  0
   -3.5188   -0.9481    0.0112 C   0  0  0  0  0  0  0  0  0  0  0  0
   -3.5849    0.3563   -0.6611 C   0  0  0  0  0  0  0  0  0  0  0  0
   -2.9682    0.5549   -1.9007 C   0  0  0  0  0  0  0  0  0  0  0  0
   -3.0517    1.8036   -2.4946 C   0  0  0  0  0  0  0  0  0  0  0  0
   -3.7036    2.8511   -1.9488 N   0  0  0  0  0  0  0  0  0  0  0  0
   -4.3019    2.6395   -0.7578 C   0  0  0  0  0  0  0  0  0  0  0  0
   -4.2733    1.4284   -0.0857 C   0  0  0  0  0  0  0  0  0  0  0  0
    1.5839    0.8615   -0.3006 C   0  0  0  0  0  0  0  0  0  0  0  0
    1.1396    0.1212   -1.4459 O   0  0  0  0  0  0  0  0  0  0  0  0
    3.0220    0.4757   -0.0063 C   0  0  0  0  0  0  0  0  0  0  0  0
    3.3454   -0.6255    0.8008 C   0  0  0  0  0  0  0  0  0  0  0  0
    4.6769   -0.9832    1.0162 C   0  0  0  0  0  0  0  0  0  0  0  0
    5.7042   -0.2531    0.4203 C   0  0  0  0  0  0  0  0  0  0  0  0
    5.4116    0.8476   -0.3968 C   0  0  0  0  0  0  0  0  0  0  0  0
    6.5208    1.6209   -1.0674 C   0  0  0  0  0  0  0  0  0  0  0  0
    6.2112    2.9316   -1.2730 F   0  0  0  0  0  0  0  0  0  0  0  0
    6.8339    1.1148   -2.2923 F   0  0  0  0  0  0  0  0  0  0  0  0
    7.6821    1.6210   -0.3551 F   0  0  0  0  0  0  0  0  0  0  0  0
    4.0669    1.1940   -0.6133 C   0  0  0  0  0  0  0  0  0  0  0  0
   -0.6389   -0.2456   -0.3862 H   0  0  0  0  0  0  0  0  0  0  0  0
   -2.0328    0.7818    1.6222 H   0  0  0  0  0  0  0  0  0  0  0  0
   -1.1977   -0.4736    2.5093 H   0  0  0  0  0  0  0  0  0  0  0  0
   -1.8465   -2.7482    2.3979 H   0  0  0  0  0  0  0  0  0  0  0  0
   -3.4327   -4.4845    1.6628 H   0  0  0  0  0  0  0  0  0  0  0  0
   -5.0803   -3.9915   -0.1243 H   0  0  0  0  0  0  0  0  0  0  0  0
   -5.1370   -1.7643   -1.1769 H   0  0  0  0  0  0  0  0  0  0  0  0
   -2.4294   -0.2458   -2.3972 H   0  0  0  0  0  0  0  0  0  0  0  0
   -2.5821    1.9991   -3.4545 H   0  0  0  0  0  0  0  0  0  0  0  0
   -4.8231    3.4974   -0.3424 H   0  0  0  0  0  0  0  0  0  0  0  0
   -4.7778    1.3250    0.8695 H   0  0  0  0  0  0  0  0  0  0  0  0
    1.5228    1.9244   -0.5634 H   0  0  0  0  0  0  0  0  0  0  0  0
    1.6221   -0.7249   -1.4357 H   0  0  0  0  0  0  0  0  0  0  0  0
    2.5649   -1.2138    1.2808 H   0  0  0  0  0  0  0  0  0  0  0  0
    4.9135   -1.8329    1.6529 H   0  0  0  0  0  0  0  0  0  0  0  0
    6.7384   -0.5453    0.5975 H   0  0  0  0  0  0  0  0  0  0  0  0
    3.8326    2.0372   -1.2646 H   0  0  0  0  0  0  0  0  0  0  0  0
  1  2  2  0
  2  3  1  0
  3  4  1  0
  4  5  1  0
  5  6  2  0
  6  7  1  0
  7  8  2  0
  8  9  1  0
  9 10  2  0
 10 11  1  0
 11 12  2  0
 12 13  1  0
 13 14  2  0
 14 15  1  0
 15 16  2  0
  2 17  1  0
 17 18  1  0
 17 19  1  0
 19 20  2  0
 20 21  1  0
 21 22  2  0
 22 23  1  0
 23 24  1  0
 24 25  1  0
 24 26  1  0
 24 27  1  0
 23 28  2  0
 10  5  1  0
 16 11  1  0
 28 19  1  0
  3 29  1  0
  4 30  1  0
  4 31  1  0
  6 32  1  0
  7 33  1  0
  8 34  1  0
  9 35  1  0
 12 36  1  0
 13 37  1  0
 15 38  1  0
 16 39  1  0
 17 40  1  0
 18 41  1  0
 20 42  1  0
 21 43  1  0
 22 44  1  0
 28 45  1  0
M  END
$$$$
OCNT-2313124
     RDKit          3D

 48 50  0  0  0  0  0  0  0  0999 V2000
    4.6629   -2.8365    1.9709 C   0  0  0  0  0  0  0  0  0  0  0  0
    4.7660   -1.5388    1.2694 C   0  0  0  0  0  0  0  0  0  0  0  0
    3.9378   -0.9066    0.3694 C   0  0  0  0  0  0  0  0  0  0  0  0
    4.5853    0.3112    0.0462 C   0  0  0  0  0  0  0  0  0  0  0  0
    4.1852    1.4349   -0.8640 C   0  0  0  0  0  0  0  0  0  0  0  0
    2.9744    1.2372   -1.7916 C   0  0  0  0  0  0  0  0  0  0  0  0
    3.1518    0.0839   -2.7824 C   0  0  0  0  0  0  0  0  0  0  0  0
    1.7178    1.1435   -1.0509 N   0  0  0  0  0  0  0  0  0  0  0  0
    0.5119    1.3957   -1.6484 C   0  0  0  0  0  0  0  0  0  0  0  0
    0.3680    1.7727   -2.8022 O   0  0  0  0  0  0  0  0  0  0  0  0
   -0.5253    1.1659   -0.7855 N   0  0  0  0  0  0  0  0  0  0  0  0
   -1.8820    1.4511   -1.2137 C   0  0  0  0  0  0  0  0  0  0  0  0
   -2.4507    0.4005   -2.1855 C   0  0  0  0  0  0  0  0  0  0  0  0
   -3.2006   -0.5846   -1.4272 O   0  0  0  0  0  0  0  0  0  0  0  0
   -3.5417    0.0775   -0.2717 C   0  0  0  0  0  0  0  0  0  0  0  0
   -4.4737   -0.3812    0.6517 C   0  0  0  0  0  0  0  0  0  0  0  0
   -5.1903   -1.6822    0.4378 C   0  0  0  0  0  0  0  0  0  0  0  0
   -4.6892    0.4101    1.8020 C   0  0  0  0  0  0  0  0  0  0  0  0
   -5.6782   -0.0039    2.8588 C   0  0  0  0  0  0  0  0  0  0  0  0
   -3.9844    1.6251    1.9637 C   0  0  0  0  0  0  0  0  0  0  0  0
   -3.0531    2.0557    1.0171 C   0  0  0  0  0  0  0  0  0  0  0  0
   -2.8416    1.2636   -0.0962 C   0  0  0  0  0  0  0  0  0  0  0  0
    5.7421    0.4257    0.7158 N   0  0  0  0  0  0  0  0  0  0  0  0
    5.8295   -0.6999    1.4374 N   0  0  0  0  0  0  0  0  0  0  0  0
    3.6928   -3.3078    1.7834 H   0  0  0  0  0  0  0  0  0  0  0  0
    5.4450   -3.5214    1.6284 H   0  0  0  0  0  0  0  0  0  0  0  0
    4.7697   -2.7024    3.0523 H   0  0  0  0  0  0  0  0  0  0  0  0
    3.0002   -1.2948   -0.0009 H   0  0  0  0  0  0  0  0  0  0  0  0
    5.0531    1.6851   -1.4900 H   0  0  0  0  0  0  0  0  0  0  0  0
    3.9965    2.3160   -0.2348 H   0  0  0  0  0  0  0  0  0  0  0  0
    2.8970    2.1527   -2.3944 H   0  0  0  0  0  0  0  0  0  0  0  0
    3.0974   -0.8946   -2.2982 H   0  0  0  0  0  0  0  0  0  0  0  0
    2.3655    0.1019   -3.5447 H   0  0  0  0  0  0  0  0  0  0  0  0
    4.1133    0.1592   -3.3006 H   0  0  0  0  0  0  0  0  0  0  0  0
    1.6771    0.5001   -0.2746 H   0  0  0  0  0  0  0  0  0  0  0  0
   -0.3163    1.3163    0.1899 H   0  0  0  0  0  0  0  0  0  0  0  0
   -1.9245    2.4549   -1.6501 H   0  0  0  0  0  0  0  0  0  0  0  0
   -3.1534    0.8649   -2.8897 H   0  0  0  0  0  0  0  0  0  0  0  0
   -1.6801   -0.1164   -2.7664 H   0  0  0  0  0  0  0  0  0  0  0  0
   -6.2657   -1.5623    0.6044 H   0  0  0  0  0  0  0  0  0  0  0  0
   -5.0701   -2.0540   -0.5850 H   0  0  0  0  0  0  0  0  0  0  0  0
   -4.8009   -2.4424    1.1224 H   0  0  0  0  0  0  0  0  0  0  0  0
   -6.6968    0.0458    2.4619 H   0  0  0  0  0  0  0  0  0  0  0  0
   -5.4690   -1.0217    3.2027 H   0  0  0  0  0  0  0  0  0  0  0  0
   -5.6275    0.6512    3.7346 H   0  0  0  0  0  0  0  0  0  0  0  0
   -4.1599    2.2412    2.8439 H   0  0  0  0  0  0  0  0  0  0  0  0
   -2.5112    2.9852    1.1587 H   0  0  0  0  0  0  0  0  0  0  0  0
    6.6458   -0.8297    2.0259 H   0  0  0  0  0  0  0  0  0  0  0  0
  1  2  1  0
  2  3  2  0
  3  4  1  0
  4  5  1  0
  5  6  1  0
  6  7  1  0
  6  8  1  0
  8  9  1  0
  9 10  2  0
  9 11  1  0
 11 12  1  0
 12 13  1  0
 13 14  1  0
 14 15  1  0
 15 16  1  0
 16 17  1  0
 16 18  2  0
 18 19  1  0
 18 20  1  0
 20 21  2  0
 21 22  1  0
  4 23  2  0
 23 24  1  0
 24  2  1  0
 22 12  1  0
 22 15  2  0
  1 25  1  0
  1 26  1  0
  1 27  1  0
  3 28  1  0
  5 29  1  0
  5 30  1  0
  6 31  1  0
  7 32  1  0
  7 33  1  0
  7 34  1  0
  8 35  1  0
 11 36  1  0
 12 37  1  0
 13 38  1  0
 13 39  1  0
 17 40  1  0
 17 41  1  0
 17 42  1  0
 19 43  1  0
 19 44  1  0
 19 45  1  0
 20 46  1  0
 21 47  1  0
 24 48  1  0
M  END
$$$$
OCNT-2313143
     RDKit          3D

  0  0  0  0  0  0  0  0  0  0999 V3000
M  V30 BEGIN CTAB
M  V30 COUNTS 44 47 0 0 0
M  V30 BEGIN ATOM
M  V30 1 C 8.010297 -1.389351 -0.551281 0
M  V30 2 C 6.638281 -0.854326 -0.657384 0
M  V30 3 N 5.969778 -0.153542 0.230465 0
M  V30 4 C 4.753471 0.083726 -0.376337 0
M  V30 5 C 3.691704 0.846734 0.274040 0
M  V30 6 C 3.874622 1.352111 1.568311 0
M  V30 7 C 2.860917 2.075321 2.200143 0
M  V30 8 C 1.652375 2.304172 1.543170 0
M  V30 9 C 1.448946 1.821037 0.244184 0
M  V30 10 C 0.134001 2.037354 -0.453301 0
M  V30 11 N -0.785998 0.971758 -0.143150 0
M  V30 12 C -2.103288 1.051299 -0.504521 0
M  V30 13 O -2.630806 2.017522 -1.035501 0
M  V30 14 C -2.884803 -0.178577 -0.236012 0 CFG=1
M  V30 15 C -2.877879 -0.851047 1.111651 0
M  V30 16 C -4.099846 -0.081640 0.673953 0 CFG=2
M  V30 17 C -5.369065 -0.798307 0.284692 0
M  V30 18 C -5.952737 -1.769711 1.105894 0
M  V30 19 C -7.127207 -2.388056 0.702803 0
M  V30 20 N -7.765205 -2.107743 -0.451351 0
M  V30 21 C -7.205053 -1.160724 -1.230761 0
M  V30 22 C -6.033962 -0.491522 -0.909014 0
M  V30 23 C 2.471672 1.085987 -0.377809 0
M  V30 24 N 4.651943 -0.456229 -1.602659 0
M  V30 25 N 5.851032 -1.035239 -1.755344 0
M  V30 26 H 8.471409 -1.082613 0.392525 0
M  V30 27 H 8.634790 -1.019762 -1.370408 0
M  V30 28 H 8.001136 -2.482955 -0.586003 0
M  V30 29 H 4.812651 1.181038 2.093532 0
M  V30 30 H 3.015441 2.457812 3.205896 0
M  V30 31 H 0.867113 2.862171 2.049590 0
M  V30 32 H 0.270286 2.067771 -1.540859 0
M  V30 33 H -0.309427 2.997236 -0.162590 0
M  V30 34 H -0.411889 0.082996 0.160908 0
M  V30 35 H -2.972749 -0.823285 -1.105258 0
M  V30 36 H -2.913715 -1.934469 1.127413 0
M  V30 37 H -2.282698 -0.421510 1.910144 0
M  V30 38 H -4.254274 0.878826 1.165227 0
M  V30 39 H -5.498034 -2.041504 2.052745 0
M  V30 40 H -7.599028 -3.146952 1.320285 0
M  V30 41 H -7.738046 -0.941478 -2.151409 0
M  V30 42 H -5.641971 0.267370 -1.580030 0
M  V30 43 H 2.316710 0.695578 -1.382963 0
M  V30 44 H 6.059106 -1.527277 -2.616635 0
M  V30 END ATOM
M  V30 BEGIN BOND
M  V30 1 1 1 2
M  V30 2 2 2 3
M  V30 3 1 3 4
M  V30 4 1 4 5
M  V30 5 1 5 6
M  V30 6 2 6 7
M  V30 7 1 7 8
M  V30 8 2 8 9
M  V30 9 1 9 10
M  V30 10 1 10 11
M  V30 11 1 11 12
M  V30 12 2 12 13
M  V30 13 1 12 14
M  V30 14 1 14 15
M  V30 15 1 15 16
M  V30 16 1 16 17
M  V30 17 2 17 18
M  V30 18 1 18 19
M  V30 19 2 19 20
M  V30 20 1 20 21
M  V30 21 2 21 22
M  V30 22 1 9 23
M  V30 23 2 4 24
M  V30 24 1 24 25
M  V30 25 1 25 2
M  V30 26 2 23 5
M  V30 27 1 16 14
M  V30 28 1 22 17
M  V30 29 1 1 26
M  V30 30 1 1 27
M  V30 31 1 1 28
M  V30 32 1 6 29
M  V30 33 1 7 30
M  V30 34 1 8 31
M  V30 35 1 10 32
M  V30 36 1 10 33
M  V30 37 1 11 34
M  V30 38 1 14 35 CFG=3
M  V30 39 1 15 36
M  V30 40 1 15 37
M  V30 41 1 16 38 CFG=1
M  V30 42 1 18 39
M  V30 43 1 19 40
M  V30 44 1 21 41
M  V30 45 1 22 42
M  V30 46 1 23 43
M  V30 47 1 25 44
M  V30 END BOND
M  V30 BEGIN COLLECTION
M  V30 MDLV30/STERAC1 ATOMS=(2 14 16)
M  V30 END COLLECTION
M  V30 END CTAB
M  END
>  <_CXSMILES_Data>  (708) 
|&1:13,15|

$$$$
OCNT-2313155
     RDKit          3D

 50 54  0  0  0  0  0  0  0  0999 V2000
    3.1007    2.4513    1.4837 C   0  0  0  0  0  0  0  0  0  0  0  0
    3.3224    1.0338    1.9893 C   0  0  0  0  0  0  0  0  0  0  0  0
    4.0796    0.1905    1.0140 C   0  0  0  0  0  0  0  0  0  0  0  0
    5.4398   -0.0715    1.0527 C   0  0  0  0  0  0  0  0  0  0  0  0
    5.7563   -0.8565   -0.0238 N   0  0  0  0  0  0  0  0  0  0  0  0
    4.6339   -1.1076   -0.7602 C   0  0  0  0  0  0  0  0  0  0  0  0
    4.6177   -1.8365   -1.8850 N   0  0  0  0  0  0  0  0  0  0  0  0
    3.3797   -1.9073   -2.3979 C   0  0  0  0  0  0  0  0  0  0  0  0
    2.2466   -1.3631   -1.9162 N   0  0  0  0  0  0  0  0  0  0  0  0
    2.3020   -0.6408   -0.7669 C   0  0  0  0  0  0  0  0  0  0  0  0
    1.1225   -0.0921   -0.2252 N   0  0  0  0  0  0  0  0  0  0  0  0
    0.4516   -1.1229    0.5839 C   0  0  0  0  0  0  0  0  0  0  0  0
   -0.9474   -0.6426    0.9538 C   0  0  0  0  0  0  0  0  0  0  0  0
   -1.8268   -0.5714   -0.3158 C   0  0  0  0  0  0  0  0  0  0  0  0
   -0.9797   -0.2156   -1.5675 C   0  0  0  0  0  0  0  0  0  0  0  0
    0.2886    0.5665   -1.2442 C   0  0  0  0  0  0  0  0  0  0  0  0
   -2.2881   -1.9219   -0.5984 O   0  0  0  0  0  0  0  0  0  0  0  0
   -3.4805   -2.3050    0.0767 C   0  0  0  0  0  0  0  0  0  0  0  0
   -4.6334   -1.4646   -0.4377 C   0  0  0  0  0  0  0  0  0  0  0  0
   -4.3296   -0.0119   -0.1969 C   0  0  0  0  0  0  0  0  0  0  0  0
   -5.3852    0.9039   -0.0712 C   0  0  0  0  0  0  0  0  0  0  0  0
   -5.1250    2.2521    0.1545 C   0  0  0  0  0  0  0  0  0  0  0  0
   -3.8107    2.6934    0.2524 C   0  0  0  0  0  0  0  0  0  0  0  0
   -2.7553    1.7890    0.1113 C   0  0  0  0  0  0  0  0  0  0  0  0
   -2.9901    0.4230   -0.1308 C   0  0  0  0  0  0  0  0  0  0  0  0
    3.5584   -0.4858   -0.1432 C   0  0  0  0  0  0  0  0  0  0  0  0
    2.5532    3.0378    2.2282 H   0  0  0  0  0  0  0  0  0  0  0  0
    4.0541    2.9541    1.2888 H   0  0  0  0  0  0  0  0  0  0  0  0
    2.5226    2.4594    0.5540 H   0  0  0  0  0  0  0  0  0  0  0  0
    2.3583    0.5708    2.2215 H   0  0  0  0  0  0  0  0  0  0  0  0
    3.8738    1.0781    2.9368 H   0  0  0  0  0  0  0  0  0  0  0  0
    6.2056    0.2428    1.7496 H   0  0  0  0  0  0  0  0  0  0  0  0
    6.6732   -1.2020   -0.2657 H   0  0  0  0  0  0  0  0  0  0  0  0
    3.2765   -2.4766   -3.3165 H   0  0  0  0  0  0  0  0  0  0  0  0
    1.0218   -1.2918    1.5056 H   0  0  0  0  0  0  0  0  0  0  0  0
    0.3904   -2.0867    0.0596 H   0  0  0  0  0  0  0  0  0  0  0  0
   -0.8614    0.3328    1.4481 H   0  0  0  0  0  0  0  0  0  0  0  0
   -1.3744   -1.3313    1.6911 H   0  0  0  0  0  0  0  0  0  0  0  0
   -1.5788    0.3438   -2.2976 H   0  0  0  0  0  0  0  0  0  0  0  0
   -0.6828   -1.1368   -2.0889 H   0  0  0  0  0  0  0  0  0  0  0  0
    0.0279    1.5558   -0.8564 H   0  0  0  0  0  0  0  0  0  0  0  0
    0.8420    0.7712   -2.1707 H   0  0  0  0  0  0  0  0  0  0  0  0
   -3.3559   -2.2174    1.1619 H   0  0  0  0  0  0  0  0  0  0  0  0
   -3.6641   -3.3607   -0.1476 H   0  0  0  0  0  0  0  0  0  0  0  0
   -5.5571   -1.7593    0.0721 H   0  0  0  0  0  0  0  0  0  0  0  0
   -4.7631   -1.6127   -1.5162 H   0  0  0  0  0  0  0  0  0  0  0  0
   -6.4166    0.5664   -0.1446 H   0  0  0  0  0  0  0  0  0  0  0  0
   -5.9462    2.9563    0.2569 H   0  0  0  0  0  0  0  0  0  0  0  0
   -3.6031    3.7445    0.4363 H   0  0  0  0  0  0  0  0  0  0  0  0
   -1.7443    2.1750    0.2022 H   0  0  0  0  0  0  0  0  0  0  0  0
  1  2  1  0
  2  3  1  0
  3  4  2  0
  4  5  1  0
  5  6  1  0
  6  7  2  0
  7  8  1  0
  8  9  2  0
  9 10  1  0
 10 11  1  0
 11 12  1  0
 12 13  1  0
 13 14  1  0
 14 15  1  0
 15 16  1  0
 14 17  1  0
 17 18  1  0
 18 19  1  0
 19 20  1  0
 20 21  2  0
 21 22  1  0
 22 23  2  0
 23 24  1  0
 24 25  2  0
 10 26  2  0
 26  3  1  0
 26  6  1  0
 16 11  1  0
 25 20  1  0
 25 14  1  0
  1 27  1  0
  1 28  1  0
  1 29  1  0
  2 30  1  0
  2 31  1  0
  4 32  1  0
  5 33  1  0
  8 34  1  0
 12 35  1  0
 12 36  1  0
 13 37  1  0
 13 38  1  0
 15 39  1  0
 15 40  1  0
 16 41  1  0
 16 42  1  0
 18 43  1  0
 18 44  1  0
 19 45  1  0
 19 46  1  0
 21 47  1  0
 22 48  1  0
 23 49  1  0
 24 50  1  0
M  END
$$$$
OCNT-2313159
     RDKit          3D

 45 48  0  0  0  0  0  0  0  0999 V2000
   -4.7792   -0.9547    1.0370 C   0  0  0  0  0  0  0  0  0  0  0  0
   -4.4033    0.4135    0.6376 C   0  0  0  0  0  0  0  0  0  0  0  0
   -3.5276    0.9474   -0.2759 C   0  0  0  0  0  0  0  0  0  0  0  0
   -2.4987    0.0768   -1.3089 S   0  0  0  0  0  0  0  0  0  0  0  0
   -3.3009   -1.0366   -1.7685 O   0  0  0  0  0  0  0  0  0  0  0  0
   -1.9529    1.0428   -2.2407 O   0  0  0  0  0  0  0  0  0  0  0  0
   -1.2213   -0.5506   -0.3898 N   0  0  0  0  0  0  0  0  0  0  0  0
   -0.3023    0.4391    0.2459 C   0  0  0  0  0  0  0  0  0  0  0  0
    1.0710    0.1960   -0.3998 C   0  0  0  0  0  0  0  0  0  0  0  0
    2.2799    0.7270    0.3349 C   0  0  0  0  0  0  0  0  0  0  0  0
    3.3661    1.2149   -0.4123 C   0  0  0  0  0  0  0  0  0  0  0  0
    4.5064    1.7192    0.2163 C   0  0  0  0  0  0  0  0  0  0  0  0
    4.5819    1.7439    1.6051 C   0  0  0  0  0  0  0  0  0  0  0  0
    3.5184    1.2626    2.3630 C   0  0  0  0  0  0  0  0  0  0  0  0
    2.3767    0.7581    1.7339 C   0  0  0  0  0  0  0  0  0  0  0  0
    1.0602   -1.3197   -0.6205 C   0  0  0  0  0  0  0  0  0  0  0  0
    2.1538   -1.9802   -1.5150 C   0  0  0  0  0  0  0  0  0  0  0  0
    2.0560   -3.2290   -0.6155 C   0  0  0  0  0  0  0  0  0  0  0  0
    1.5214   -2.3100    0.5027 C   0  0  0  0  0  0  0  0  0  0  0  0
   -0.3875   -1.5713   -1.0875 C   0  0  0  0  0  0  0  0  0  0  0  0
   -3.6572    2.3407   -0.1367 C   0  0  0  0  0  0  0  0  0  0  0  0
   -2.9661    3.2726   -0.8210 N   0  0  0  0  0  0  0  0  0  0  0  0
   -4.5693    2.6398    0.7930 N   0  0  0  0  0  0  0  0  0  0  0  0
   -5.0378    1.4321    1.2768 O   0  0  0  0  0  0  0  0  0  0  0  0
   -5.4418   -1.4015    0.2898 H   0  0  0  0  0  0  0  0  0  0  0  0
   -5.3011   -0.9570    1.9992 H   0  0  0  0  0  0  0  0  0  0  0  0
   -3.8926   -1.5883    1.1369 H   0  0  0  0  0  0  0  0  0  0  0  0
   -0.6199    1.4773    0.1142 H   0  0  0  0  0  0  0  0  0  0  0  0
   -0.3169    0.2271    1.3197 H   0  0  0  0  0  0  0  0  0  0  0  0
    1.0383    0.6850   -1.3857 H   0  0  0  0  0  0  0  0  0  0  0  0
    3.3321    1.2080   -1.5004 H   0  0  0  0  0  0  0  0  0  0  0  0
    5.3346    2.0931   -0.3800 H   0  0  0  0  0  0  0  0  0  0  0  0
    5.4685    2.1358    2.0963 H   0  0  0  0  0  0  0  0  0  0  0  0
    3.5774    1.2765    3.4486 H   0  0  0  0  0  0  0  0  0  0  0  0
    1.5781    0.3775    2.3649 H   0  0  0  0  0  0  0  0  0  0  0  0
    1.8942   -2.1362   -2.5658 H   0  0  0  0  0  0  0  0  0  0  0  0
    3.1373   -1.4999   -1.4708 H   0  0  0  0  0  0  0  0  0  0  0  0
    3.0017   -3.7337   -0.4021 H   0  0  0  0  0  0  0  0  0  0  0  0
    1.3306   -3.9720   -0.9656 H   0  0  0  0  0  0  0  0  0  0  0  0
    0.7344   -2.7385    1.1299 H   0  0  0  0  0  0  0  0  0  0  0  0
    2.3225   -1.9508    1.1562 H   0  0  0  0  0  0  0  0  0  0  0  0
   -0.7493   -2.5738   -0.8390 H   0  0  0  0  0  0  0  0  0  0  0  0
   -0.4533   -1.4356   -2.1737 H   0  0  0  0  0  0  0  0  0  0  0  0
   -2.5218    3.0162   -1.7044 H   0  0  0  0  0  0  0  0  0  0  0  0
   -3.3407    4.2164   -0.8222 H   0  0  0  0  0  0  0  0  0  0  0  0
  1  2  1  0
  2  3  2  0
  3  4  1  0
  4  5  2  0
  4  6  2  0
  4  7  1  0
  7  8  1  0
  8  9  1  0
  9 10  1  0
 10 11  2  0
 11 12  1  0
 12 13  2  0
 13 14  1  0
 14 15  2  0
  9 16  1  0
 16 17  1  0
 17 18  1  0
 18 19  1  0
 16 20  1  0
  3 21  1  0
 21 22  1  0
 21 23  2  0
 23 24  1  0
 24  2  1  0
 20  7  1  0
 15 10  1  0
 19 16  1  0
  1 25  1  0
  1 26  1  0
  1 27  1  0
  8 28  1  0
  8 29  1  0
  9 30  1  0
 11 31  1  0
 12 32  1  0
 13 33  1  0
 14 34  1  0
 15 35  1  0
 17 36  1  0
 17 37  1  0
 18 38  1  0
 18 39  1  0
 19 40  1  0
 19 41  1  0
 20 42  1  0
 20 43  1  0
 22 44  1  0
 22 45  1  0
M  END
$$$$
OCNT-2313161
     RDKit          3D

 42 44  0  0  0  0  0  0  0  0999 V2000
   -5.1774   -0.2295    2.4741 C   0  0  0  0  0  0  0  0  0  0  0  0
   -4.5135   -0.5199    1.1622 C   0  0  0  0  0  0  0  0  0  0  0  0
   -5.0625   -1.4499    0.2923 C   0  0  0  0  0  0  0  0  0  0  0  0
   -4.4151   -1.6914   -0.9115 C   0  0  0  0  0  0  0  0  0  0  0  0
   -3.2447   -0.9991   -1.2141 C   0  0  0  0  0  0  0  0  0  0  0  0
   -2.7437   -0.0698   -0.3036 C   0  0  0  0  0  0  0  0  0  0  0  0
   -1.4499    0.7256   -0.5408 C   0  0  0  0  0  0  0  0  0  0  0  0
   -1.7373    2.2223   -0.2800 C   0  0  0  0  0  0  0  0  0  0  0  0
   -0.9126    0.6041   -1.9837 C   0  0  0  0  0  0  0  0  0  0  0  0
   -0.4000    0.1913    0.4729 C   0  0  0  0  0  0  0  0  0  0  0  0
    0.8751    0.9023    0.3760 N   0  0  0  0  0  0  0  0  0  0  0  0
    2.0070    0.1556    0.0558 C   0  0  0  0  0  0  0  0  0  0  0  0
    1.9084   -0.9476   -0.7425 N   0  0  0  0  0  0  0  0  0  0  0  0
    3.0165   -1.6530   -1.0734 C   0  0  0  0  0  0  0  0  0  0  0  0
    4.3088   -1.3576   -0.6665 C   0  0  0  0  0  0  0  0  0  0  0  0
    4.4049   -0.2322    0.1455 C   0  0  0  0  0  0  0  0  0  0  0  0
    3.2952    0.5249    0.5086 C   0  0  0  0  0  0  0  0  0  0  0  0
    3.6982    1.5682    1.3083 N   0  0  0  0  0  0  0  0  0  0  0  0
    5.0148    1.4932    1.4540 N   0  0  0  0  0  0  0  0  0  0  0  0
    5.4375    0.4188    0.7628 N   0  0  0  0  0  0  0  0  0  0  0  0
    6.8401    0.1001    0.7445 C   0  0  0  0  0  0  0  0  0  0  0  0
   -3.3744    0.1565    0.8810 N   0  0  0  0  0  0  0  0  0  0  0  0
   -6.1989    0.1281    2.3106 H   0  0  0  0  0  0  0  0  0  0  0  0
   -4.6312    0.5435    3.0247 H   0  0  0  0  0  0  0  0  0  0  0  0
   -5.2063   -1.1328    3.0914 H   0  0  0  0  0  0  0  0  0  0  0  0
   -5.9751   -1.9796    0.5431 H   0  0  0  0  0  0  0  0  0  0  0  0
   -4.8164   -2.4174   -1.6134 H   0  0  0  0  0  0  0  0  0  0  0  0
   -2.7480   -1.2065   -2.1547 H   0  0  0  0  0  0  0  0  0  0  0  0
   -0.8597    2.8439   -0.4903 H   0  0  0  0  0  0  0  0  0  0  0  0
   -2.5556    2.5822   -0.9153 H   0  0  0  0  0  0  0  0  0  0  0  0
   -2.0238    2.4084    0.7616 H   0  0  0  0  0  0  0  0  0  0  0  0
   -0.6063   -0.4219   -2.2166 H   0  0  0  0  0  0  0  0  0  0  0  0
   -0.0396    1.2467   -2.1450 H   0  0  0  0  0  0  0  0  0  0  0  0
   -1.6691    0.9057   -2.7179 H   0  0  0  0  0  0  0  0  0  0  0  0
   -0.7673    0.3267    1.4993 H   0  0  0  0  0  0  0  0  0  0  0  0
   -0.2837   -0.8945    0.3540 H   0  0  0  0  0  0  0  0  0  0  0  0
    1.0604    1.5523    1.1360 H   0  0  0  0  0  0  0  0  0  0  0  0
    2.8261   -2.5120   -1.7131 H   0  0  0  0  0  0  0  0  0  0  0  0
    5.1585   -1.9572   -0.9630 H   0  0  0  0  0  0  0  0  0  0  0  0
    6.9864   -0.9083    0.3518 H   0  0  0  0  0  0  0  0  0  0  0  0
    7.2255    0.1523    1.7659 H   0  0  0  0  0  0  0  0  0  0  0  0
    7.3484    0.8277    0.1074 H   0  0  0  0  0  0  0  0  0  0  0  0
  1  2  1  0
  2  3  1  0
  3  4  2  0
  4  5  1  0
  5  6  2  0
  6  7  1  0
  7  8  1  0
  7  9  1  0
  7 10  1  0
 10 11  1  0
 11 12  1  0
 12 13  1  0
 13 14  2  0
 14 15  1  0
 15 16  2  0
 16 17  1  0
 17 18  1  0
 18 19  2  0
 19 20  1  0
 20 21  1  0
  6 22  1  0
 22  2  2  0
 17 12  2  0
 20 16  1  0
  1 23  1  0
  1 24  1  0
  1 25  1  0
  3 26  1  0
  4 27  1  0
  5 28  1  0
  8 29  1  0
  8 30  1  0
  8 31  1  0
  9 32  1  0
  9 33  1  0
  9 34  1  0
 10 35  1  0
 10 36  1  0
 11 37  1  0
 14 38  1  0
 15 39  1  0
 21 40  1  0
 21 41  1  0
 21 42  1  0
M  END
$$$$
OCNT-2313164
     RDKit          3D

 45 48  0  0  0  0  0  0  0  0999 V2000
    0.2466    1.2723    1.5848 O   0  0  0  0  0  0  0  0  0  0  0  0
    0.5272    0.1523    1.1567 C   0  0  0  0  0  0  0  0  0  0  0  0
    1.9043   -0.2853    1.1071 C   0  0  0  0  0  0  0  0  0  0  0  0
    3.0151    0.4070    0.6659 C   0  0  0  0  0  0  0  0  0  0  0  0
    4.2181   -0.3677    0.8354 C   0  0  0  0  0  0  0  0  0  0  0  0
    5.5635    0.0716    0.4419 C   0  0  0  0  0  0  0  0  0  0  0  0
    6.0153    1.3480    0.7707 C   0  0  0  0  0  0  0  0  0  0  0  0
    7.2924    1.7301    0.3664 C   0  0  0  0  0  0  0  0  0  0  0  0
    8.0758    0.8337   -0.3509 C   0  0  0  0  0  0  0  0  0  0  0  0
    7.5481   -0.4140   -0.6380 C   0  0  0  0  0  0  0  0  0  0  0  0
    6.3131   -0.8116   -0.2649 N   0  0  0  0  0  0  0  0  0  0  0  0
    4.0303   -1.5621    1.4111 N   0  0  0  0  0  0  0  0  0  0  0  0
    2.4331   -1.7516    1.7899 S   0  0  0  0  0  0  0  0  0  0  0  0
   -0.4741   -0.6975    0.6670 N   0  0  0  0  0  0  0  0  0  0  0  0
   -0.2182   -1.8177   -0.2433 C   0  0  0  0  0  0  0  0  0  0  0  0
   -1.4085   -2.1232   -1.1567 C   0  0  0  0  0  0  0  0  0  0  0  0
   -2.0342   -0.8359   -1.6952 C   0  0  0  0  0  0  0  0  0  0  0  0
   -2.4472    0.1394   -0.5645 C   0  0  0  0  0  0  0  0  0  0  0  0
   -3.9510    0.3358   -0.4747 C   0  0  0  0  0  0  0  0  0  0  0  0
   -4.4887    1.6327   -0.5126 C   0  0  0  0  0  0  0  0  0  0  0  0
   -5.8657    1.8326   -0.4211 C   0  0  0  0  0  0  0  0  0  0  0  0
   -6.3222    3.1168   -0.4671 O   0  0  0  0  0  0  0  0  0  0  0  0
   -6.7354    0.7593   -0.2871 C   0  0  0  0  0  0  0  0  0  0  0  0
   -6.2057   -0.5238   -0.2442 C   0  0  0  0  0  0  0  0  0  0  0  0
   -7.0313   -1.5707   -0.1124 F   0  0  0  0  0  0  0  0  0  0  0  0
   -4.8330   -0.7461   -0.3338 C   0  0  0  0  0  0  0  0  0  0  0  0
   -1.8704   -0.2872    0.7998 C   0  0  0  0  0  0  0  0  0  0  0  0
    2.9684    1.3969    0.2304 H   0  0  0  0  0  0  0  0  0  0  0  0
    5.3991    2.0326    1.3441 H   0  0  0  0  0  0  0  0  0  0  0  0
    7.6745    2.7162    0.6151 H   0  0  0  0  0  0  0  0  0  0  0  0
    9.0759    1.0985   -0.6757 H   0  0  0  0  0  0  0  0  0  0  0  0
    8.1217   -1.1511   -1.1928 H   0  0  0  0  0  0  0  0  0  0  0  0
    0.0075   -2.7031    0.3595 H   0  0  0  0  0  0  0  0  0  0  0  0
    0.6587   -1.5850   -0.8575 H   0  0  0  0  0  0  0  0  0  0  0  0
   -2.1644   -2.6921   -0.6020 H   0  0  0  0  0  0  0  0  0  0  0  0
   -1.0828   -2.7631   -1.9845 H   0  0  0  0  0  0  0  0  0  0  0  0
   -1.2873   -0.3354   -2.3264 H   0  0  0  0  0  0  0  0  0  0  0  0
   -2.8719   -1.0765   -2.3601 H   0  0  0  0  0  0  0  0  0  0  0  0
   -1.9959    1.1081   -0.8237 H   0  0  0  0  0  0  0  0  0  0  0  0
   -3.8386    2.5000   -0.6122 H   0  0  0  0  0  0  0  0  0  0  0  0
   -7.2902    3.1111   -0.3833 H   0  0  0  0  0  0  0  0  0  0  0  0
   -7.8081    0.8912   -0.2142 H   0  0  0  0  0  0  0  0  0  0  0  0
   -4.4720   -1.7693   -0.2926 H   0  0  0  0  0  0  0  0  0  0  0  0
   -1.9779    0.5263    1.5265 H   0  0  0  0  0  0  0  0  0  0  0  0
   -2.4140   -1.1425    1.2212 H   0  0  0  0  0  0  0  0  0  0  0  0
  1  2  2  0
  2  3  1  0
  3  4  2  0
  4  5  1  0
  5  6  1  0
  6  7  2  0
  7  8  1  0
  8  9  2  0
  9 10  1  0
 10 11  2  0
  5 12  2  0
 12 13  1  0
  2 14  1  0
 14 15  1  0
 15 16  1  0
 16 17  1  0
 17 18  1  0
 18 19  1  0
 19 20  1  0
 20 21  2  0
 21 22  1  0
 21 23  1  0
 23 24  2  0
 24 25  1  0
 24 26  1  0
 18 27  1  0
 13  3  1  0
 27 14  1  0
 11  6  1  0
 26 19  2  0
  4 28  1  0
  7 29  1  0
  8 30  1  0
  9 31  1  0
 10 32  1  0
 15 33  1  0
 15 34  1  0
 16 35  1  0
 16 36  1  0
 17 37  1  0
 17 38  1  0
 18 39  1  0
 20 40  1  0
 22 41  1  0
 23 42  1  0
 26 43  1  0
 27 44  1  0
 27 45  1  0
M  END
$$$$
OCNT-2313173
     RDKit          3D

 38 42  0  0  0  0  0  0  0  0999 V2000
   -7.1849   -1.7063   -0.5641 C   0  0  0  0  0  0  0  0  0  0  0  0
   -6.8581   -0.5721   -1.3047 C   0  0  0  0  0  0  0  0  0  0  0  0
   -5.7181    0.1697   -0.9829 C   0  0  0  0  0  0  0  0  0  0  0  0
   -4.8929   -0.2154    0.0843 C   0  0  0  0  0  0  0  0  0  0  0  0
   -3.7052    0.5607    0.4165 C   0  0  0  0  0  0  0  0  0  0  0  0
   -2.8698    0.2880    1.4365 N   0  0  0  0  0  0  0  0  0  0  0  0
   -1.9600    1.2696    1.2738 N   0  0  0  0  0  0  0  0  0  0  0  0
   -0.8604    1.4615    2.1917 C   0  0  0  0  0  0  0  0  0  0  0  0
    0.3380    0.7679    1.6907 C   0  0  0  0  0  0  0  0  0  0  0  0
    1.4385    1.2578    1.1644 N   0  0  0  0  0  0  0  0  0  0  0  0
    2.1940    0.1250    0.9314 C   0  0  0  0  0  0  0  0  0  0  0  0
    3.5209    0.1841    0.3255 C   0  0  0  0  0  0  0  0  0  0  0  0
    4.0435    1.4194   -0.0992 C   0  0  0  0  0  0  0  0  0  0  0  0
    5.3116    1.5290   -0.6871 C   0  0  0  0  0  0  0  0  0  0  0  0
    6.0339    0.3454   -0.8300 C   0  0  0  0  0  0  0  0  0  0  0  0
    7.2750    0.0753   -1.3487 N   0  0  0  0  0  0  0  0  0  0  0  0
    7.4941   -1.2687   -1.2391 C   0  0  0  0  0  0  0  0  0  0  0  0
    6.4749   -1.8826   -0.6840 N   0  0  0  0  0  0  0  0  0  0  0  0
    5.5557   -0.8953   -0.4238 C   0  0  0  0  0  0  0  0  0  0  0  0
    4.2843   -0.9863    0.1612 C   0  0  0  0  0  0  0  0  0  0  0  0
    1.5926   -1.0105    1.3235 N   0  0  0  0  0  0  0  0  0  0  0  0
    0.3669   -0.5879    1.8263 O   0  0  0  0  0  0  0  0  0  0  0  0
   -2.2136    2.1356    0.2788 N   0  0  0  0  0  0  0  0  0  0  0  0
   -3.3211    1.6805   -0.2880 N   0  0  0  0  0  0  0  0  0  0  0  0
   -5.2341   -1.3599    0.8209 C   0  0  0  0  0  0  0  0  0  0  0  0
   -6.3740   -2.1010    0.4981 C   0  0  0  0  0  0  0  0  0  0  0  0
   -8.0710   -2.2836   -0.8156 H   0  0  0  0  0  0  0  0  0  0  0  0
   -7.4891   -0.2638   -2.1346 H   0  0  0  0  0  0  0  0  0  0  0  0
   -5.4807    1.0515   -1.5752 H   0  0  0  0  0  0  0  0  0  0  0  0
   -0.6837    2.5377    2.2870 H   0  0  0  0  0  0  0  0  0  0  0  0
   -1.1628    1.0782    3.1717 H   0  0  0  0  0  0  0  0  0  0  0  0
    3.4528    2.3271    0.0243 H   0  0  0  0  0  0  0  0  0  0  0  0
    5.7005    2.4880   -1.0116 H   0  0  0  0  0  0  0  0  0  0  0  0
    7.9144    0.7497   -1.7429 H   0  0  0  0  0  0  0  0  0  0  0  0
    8.4077   -1.7383   -1.5789 H   0  0  0  0  0  0  0  0  0  0  0  0
    3.9177   -1.9586    0.4743 H   0  0  0  0  0  0  0  0  0  0  0  0
   -4.6115   -1.6849    1.6523 H   0  0  0  0  0  0  0  0  0  0  0  0
   -6.6261   -2.9866    1.0758 H   0  0  0  0  0  0  0  0  0  0  0  0
  1  2  2  0
  2  3  1  0
  3  4  2  0
  4  5  1  0
  5  6  2  0
  6  7  1  0
  7  8  1  0
  8  9  1  0
  9 10  2  0
 10 11  1  0
 11 12  1  0
 12 13  2  0
 13 14  1  0
 14 15  2  0
 15 16  1  0
 16 17  1  0
 17 18  2  0
 18 19  1  0
 19 20  2  0
 11 21  2  0
 21 22  1  0
  7 23  1  0
 23 24  2  0
  4 25  1  0
 25 26  2  0
 26  1  1  0
 24  5  1  0
 22  9  1  0
 20 12  1  0
 19 15  1  0
  1 27  1  0
  2 28  1  0
  3 29  1  0
  8 30  1  0
  8 31  1  0
 13 32  1  0
 14 33  1  0
 16 34  1  0
 17 35  1  0
 20 36  1  0
 25 37  1  0
 26 38  1  0
M  END
$$$$
OCNT-2313175
     RDKit          3D

 54 57  0  0  0  0  0  0  0  0999 V2000
   10.0810   -1.0096   -0.4933 C   0  0  0  0  0  0  0  0  0  0  0  0
    8.9328   -0.1801   -0.3704 O   0  0  0  0  0  0  0  0  0  0  0  0
    7.7570   -0.7964   -0.0448 C   0  0  0  0  0  0  0  0  0  0  0  0
    6.6594    0.0553    0.0696 C   0  0  0  0  0  0  0  0  0  0  0  0
    5.3923   -0.4440    0.3991 C   0  0  0  0  0  0  0  0  0  0  0  0
    5.1904   -1.8079    0.6293 C   0  0  0  0  0  0  0  0  0  0  0  0
    3.9467   -2.3842    0.9456 N   0  0  0  0  0  0  0  0  0  0  0  0
    2.7254   -1.8055    1.0170 C   0  0  0  0  0  0  0  0  0  0  0  0
    2.4069   -0.5614    0.7481 N   0  0  0  0  0  0  0  0  0  0  0  0
    1.0433   -0.3217    0.9106 C   0  0  0  0  0  0  0  0  0  0  0  0
    0.4868    1.0178    0.6592 C   0  0  0  0  0  0  0  0  0  0  0  0
    1.1835    2.0281    0.6336 O   0  0  0  0  0  0  0  0  0  0  0  0
   -0.8745    1.0611    0.4342 N   0  0  0  0  0  0  0  0  0  0  0  0
   -1.5724    2.3097    0.1822 C   0  0  0  0  0  0  0  0  0  0  0  0
   -1.8379    3.0678    1.4849 C   0  0  0  0  0  0  0  0  0  0  0  0
   -2.8618    2.0427   -0.5759 C   0  0  0  0  0  0  0  0  0  0  0  0
   -3.0825    2.6436   -1.8191 C   0  0  0  0  0  0  0  0  0  0  0  0
   -4.2626    2.3983   -2.5151 C   0  0  0  0  0  0  0  0  0  0  0  0
   -5.2313    1.5426   -1.9806 C   0  0  0  0  0  0  0  0  0  0  0  0
   -5.0406    0.9135   -0.7422 C   0  0  0  0  0  0  0  0  0  0  0  0
   -6.0224    0.0347   -0.2175 N   0  0  0  0  0  0  0  0  0  0  0  0
   -7.3026   -0.1965   -0.8578 C   0  0  0  0  0  0  0  0  0  0  0  0
   -7.9375   -1.3156   -0.0477 C   0  0  0  0  0  0  0  0  0  0  0  0
   -7.1756   -1.3380    1.1624 N   0  0  0  0  0  0  0  0  0  0  0  0
   -5.9700   -0.6631    1.0043 C   0  0  0  0  0  0  0  0  0  0  0  0
   -5.0711   -0.7436    1.8254 O   0  0  0  0  0  0  0  0  0  0  0  0
   -3.8530    1.1878   -0.0510 C   0  0  0  0  0  0  0  0  0  0  0  0
    0.3367   -1.4345    1.3321 C   0  0  0  0  0  0  0  0  0  0  0  0
    1.3802   -2.7796    1.4995 S   0  0  0  0  0  0  0  0  0  0  0  0
    6.3052   -2.6549    0.5037 C   0  0  0  0  0  0  0  0  0  0  0  0
    7.5748   -2.1594    0.1722 C   0  0  0  0  0  0  0  0  0  0  0  0
   10.9330   -0.3671   -0.7380 H   0  0  0  0  0  0  0  0  0  0  0  0
    9.9614   -1.7294   -1.3100 H   0  0  0  0  0  0  0  0  0  0  0  0
   10.3072   -1.5164    0.4507 H   0  0  0  0  0  0  0  0  0  0  0  0
    6.7824    1.1235   -0.0994 H   0  0  0  0  0  0  0  0  0  0  0  0
    4.5757    0.2693    0.4756 H   0  0  0  0  0  0  0  0  0  0  0  0
    3.9915   -3.3667    1.1786 H   0  0  0  0  0  0  0  0  0  0  0  0
   -1.4001    0.2034    0.3630 H   0  0  0  0  0  0  0  0  0  0  0  0
   -0.9152    2.9322   -0.4380 H   0  0  0  0  0  0  0  0  0  0  0  0
   -2.3726    4.0033    1.2922 H   0  0  0  0  0  0  0  0  0  0  0  0
   -2.4374    2.4755    2.1852 H   0  0  0  0  0  0  0  0  0  0  0  0
   -0.8994    3.3153    1.9931 H   0  0  0  0  0  0  0  0  0  0  0  0
   -2.3412    3.3110   -2.2512 H   0  0  0  0  0  0  0  0  0  0  0  0
   -4.4319    2.8731   -3.4787 H   0  0  0  0  0  0  0  0  0  0  0  0
   -6.1319    1.3870   -2.5652 H   0  0  0  0  0  0  0  0  0  0  0  0
   -7.1841   -0.4945   -1.9037 H   0  0  0  0  0  0  0  0  0  0  0  0
   -7.8977    0.7203   -0.7930 H   0  0  0  0  0  0  0  0  0  0  0  0
   -8.9951   -1.1490    0.1692 H   0  0  0  0  0  0  0  0  0  0  0  0
   -7.8146   -2.2855   -0.5410 H   0  0  0  0  0  0  0  0  0  0  0  0
   -7.2437   -2.0372    1.8900 H   0  0  0  0  0  0  0  0  0  0  0  0
   -3.6710    0.7475    0.9241 H   0  0  0  0  0  0  0  0  0  0  0  0
   -0.7142   -1.5301    1.5630 H   0  0  0  0  0  0  0  0  0  0  0  0
    6.1986   -3.7259    0.6601 H   0  0  0  0  0  0  0  0  0  0  0  0
    8.3934   -2.8665    0.0904 H   0  0  0  0  0  0  0  0  0  0  0  0
  1  2  1  0
  2  3  1  0
  3  4  1  0
  4  5  2  0
  5  6  1  0
  6  7  1  0
  7  8  1  0
  8  9  2  0
  9 10  1  0
 10 11  1  0
 11 12  2  0
 11 13  1  0
 13 14  1  0
 14 15  1  0
 14 16  1  0
 16 17  2  0
 17 18  1  0
 18 19  2  0
 19 20  1  0
 20 21  1  0
 21 22  1  0
 22 23  1  0
 23 24  1  0
 24 25  1  0
 25 26  2  0
 20 27  2  0
 10 28  2  0
 28 29  1  0
  6 30  2  0
 30 31  1  0
 31  3  2  0
 29  8  1  0
 27 16  1  0
 25 21  1  0
  1 32  1  0
  1 33  1  0
  1 34  1  0
  4 35  1  0
  5 36  1  0
  7 37  1  0
 13 38  1  0
 14 39  1  0
 15 40  1  0
 15 41  1  0
 15 42  1  0
 17 43  1  0
 18 44  1  0
 19 45  1  0
 22 46  1  0
 22 47  1  0
 23 48  1  0
 23 49  1  0
 24 50  1  0
 27 51  1  0
 28 52  1  0
 30 53  1  0
 31 54  1  0
M  END
$$$$
OCNT-2313184
     RDKit          3D

 48 50  0  0  0  0  0  0  0  0999 V2000
   -3.9353   -3.3750    1.6441 C   0  0  0  0  0  0  0  0  0  0  0  0
   -3.3514   -2.4033    0.6617 C   0  0  0  0  0  0  0  0  0  0  0  0
   -2.3216   -2.7955   -0.1987 C   0  0  0  0  0  0  0  0  0  0  0  0
   -1.7405   -1.8741   -1.0719 C   0  0  0  0  0  0  0  0  0  0  0  0
   -2.1846   -0.5434   -1.1109 C   0  0  0  0  0  0  0  0  0  0  0  0
   -1.5011    0.4453   -2.0212 C   0  0  0  0  0  0  0  0  0  0  0  0
   -0.5166    1.2201   -1.2942 N   0  0  0  0  0  0  0  0  0  0  0  0
    0.7883    0.7771   -1.1977 C   0  0  0  0  0  0  0  0  0  0  0  0
    1.1990   -0.1855   -1.8315 O   0  0  0  0  0  0  0  0  0  0  0  0
    1.5087    1.5698   -0.3421 N   0  0  0  0  0  0  0  0  0  0  0  0
    2.8115    1.3910    0.0483 C   0  0  0  0  0  0  0  0  0  0  0  0
    3.4427    2.2734    0.7911 N   0  0  0  0  0  0  0  0  0  0  0  0
    4.7304    1.8756    1.0874 N   0  0  0  0  0  0  0  0  0  0  0  0
    5.0292    0.6984    0.5610 C   0  0  0  0  0  0  0  0  0  0  0  0
    6.3216    0.0133    0.7086 C   0  0  0  0  0  0  0  0  0  0  0  0
    7.3562    0.5972    1.4369 C   0  0  0  0  0  0  0  0  0  0  0  0
    8.5650   -0.0837    1.5615 C   0  0  0  0  0  0  0  0  0  0  0  0
    8.7115   -1.3251    0.9550 C   0  0  0  0  0  0  0  0  0  0  0  0
    7.6377   -1.8372    0.2486 C   0  0  0  0  0  0  0  0  0  0  0  0
    6.4548   -1.1992    0.1115 N   0  0  0  0  0  0  0  0  0  0  0  0
    3.7271    0.0114   -0.3345 S   0  0  0  0  0  0  0  0  0  0  0  0
   -3.2215   -0.1535   -0.2512 C   0  0  0  0  0  0  0  0  0  0  0  0
   -3.5876    1.1680   -0.2391 O   0  0  0  0  0  0  0  0  0  0  0  0
   -4.9887    1.3964   -0.4733 C   0  0  0  0  0  0  0  0  0  0  0  0
   -5.2363    1.5358   -1.9745 C   0  0  0  0  0  0  0  0  0  0  0  0
   -5.3539    2.6910    0.2512 C   0  0  0  0  0  0  0  0  0  0  0  0
   -3.7796   -1.0693    0.6468 C   0  0  0  0  0  0  0  0  0  0  0  0
   -3.8167   -4.4063    1.2953 H   0  0  0  0  0  0  0  0  0  0  0  0
   -5.0082   -3.1945    1.7721 H   0  0  0  0  0  0  0  0  0  0  0  0
   -3.4370   -3.2708    2.6148 H   0  0  0  0  0  0  0  0  0  0  0  0
   -1.9477   -3.8167   -0.1821 H   0  0  0  0  0  0  0  0  0  0  0  0
   -0.9170   -2.1927   -1.7106 H   0  0  0  0  0  0  0  0  0  0  0  0
   -1.0335   -0.0652   -2.8711 H   0  0  0  0  0  0  0  0  0  0  0  0
   -2.2293    1.1471   -2.4411 H   0  0  0  0  0  0  0  0  0  0  0  0
   -0.8886    1.7009   -0.4884 H   0  0  0  0  0  0  0  0  0  0  0  0
    1.1022    2.4394   -0.0380 H   0  0  0  0  0  0  0  0  0  0  0  0
    7.2279    1.5690    1.9043 H   0  0  0  0  0  0  0  0  0  0  0  0
    9.3834    0.3517    2.1290 H   0  0  0  0  0  0  0  0  0  0  0  0
    9.6385   -1.8835    1.0344 H   0  0  0  0  0  0  0  0  0  0  0  0
    7.7003   -2.8048   -0.2428 H   0  0  0  0  0  0  0  0  0  0  0  0
   -5.6197    0.5923   -0.0755 H   0  0  0  0  0  0  0  0  0  0  0  0
   -4.9884    0.6032   -2.4943 H   0  0  0  0  0  0  0  0  0  0  0  0
   -6.2837    1.7741   -2.1839 H   0  0  0  0  0  0  0  0  0  0  0  0
   -4.6034    2.3188   -2.4096 H   0  0  0  0  0  0  0  0  0  0  0  0
   -4.7332    3.5268   -0.0926 H   0  0  0  0  0  0  0  0  0  0  0  0
   -6.4063    2.9488    0.0997 H   0  0  0  0  0  0  0  0  0  0  0  0
   -5.1726    2.5862    1.3276 H   0  0  0  0  0  0  0  0  0  0  0  0
   -4.5320   -0.7431    1.3602 H   0  0  0  0  0  0  0  0  0  0  0  0
  1  2  1  0
  2  3  1  0
  3  4  2  0
  4  5  1  0
  5  6  1  0
  6  7  1  0
  7  8  1  0
  8  9  2  0
  8 10  1  0
 10 11  1  0
 11 12  2  0
 12 13  1  0
 13 14  2  0
 14 15  1  0
 15 16  2  0
 16 17  1  0
 17 18  2  0
 18 19  1  0
 19 20  2  0
 14 21  1  0
  5 22  2  0
 22 23  1  0
 23 24  1  0
 24 25  1  0
 24 26  1  0
 22 27  1  0
 27  2  2  0
 21 11  1  0
 20 15  1  0
  1 28  1  0
  1 29  1  0
  1 30  1  0
  3 31  1  0
  4 32  1  0
  6 33  1  0
  6 34  1  0
  7 35  1  0
 10 36  1  0
 16 37  1  0
 17 38  1  0
 18 39  1  0
 19 40  1  0
 24 41  1  0
 25 42  1  0
 25 43  1  0
 25 44  1  0
 26 45  1  0
 26 46  1  0
 26 47  1  0
 27 48  1  0
M  END
$$$$
OCNT-2313188
     RDKit          3D

 57 59  0  0  0  0  0  0  0  0999 V2000
    4.3274    2.8382   -1.8192 C   0  0  0  0  0  0  0  0  0  0  0  0
    3.5748    2.1391   -0.6766 C   0  0  0  0  0  0  0  0  0  0  0  0
    2.5964    1.0931   -1.2452 C   0  0  0  0  0  0  0  0  0  0  0  0
    1.3661    1.7031   -1.9003 C   0  0  0  0  0  0  0  0  0  0  0  0
    1.0751    2.8916   -1.8389 O   0  0  0  0  0  0  0  0  0  0  0  0
    0.5956    0.7657   -2.5548 N   0  0  0  0  0  0  0  0  0  0  0  0
   -0.6787    1.1071   -3.1447 C   0  0  0  0  0  0  0  0  0  0  0  0
   -1.8127    0.7149   -2.2309 C   0  0  0  0  0  0  0  0  0  0  0  0
   -2.5129   -0.4842   -2.4269 C   0  0  0  0  0  0  0  0  0  0  0  0
   -3.5542   -0.8468   -1.5668 C   0  0  0  0  0  0  0  0  0  0  0  0
   -3.8951   -0.0177   -0.4904 C   0  0  0  0  0  0  0  0  0  0  0  0
   -4.9997   -0.3657    0.4477 C   0  0  0  0  0  0  0  0  0  0  0  0
   -5.6916    0.5404    0.8951 O   0  0  0  0  0  0  0  0  0  0  0  0
   -5.1033   -1.7127    0.7488 N   0  0  0  0  0  0  0  0  0  0  0  0
   -6.0718   -2.3291    1.5712 C   0  0  0  0  0  0  0  0  0  0  0  0
   -5.9381   -3.6987    1.8048 C   0  0  0  0  0  0  0  0  0  0  0  0
   -6.8778   -4.3315    2.6034 C   0  0  0  0  0  0  0  0  0  0  0  0
   -7.9242   -3.7013    3.1717 N   0  0  0  0  0  0  0  0  0  0  0  0
   -8.0334   -2.3778    2.9295 C   0  0  0  0  0  0  0  0  0  0  0  0
   -7.1457   -1.6570    2.1455 C   0  0  0  0  0  0  0  0  0  0  0  0
   -3.2072    1.1844   -0.2960 C   0  0  0  0  0  0  0  0  0  0  0  0
   -2.1673    1.5433   -1.1559 C   0  0  0  0  0  0  0  0  0  0  0  0
    4.5730    1.5526    0.3667 C   0  0  0  0  0  0  0  0  0  0  0  0
    5.5092    0.4713   -0.2077 C   0  0  0  0  0  0  0  0  0  0  0  0
    6.2813   -0.2312    0.9041 C   0  0  0  0  0  0  0  0  0  0  0  0
    5.3585   -0.9474    1.8893 C   0  0  0  0  0  0  0  0  0  0  0  0
    3.9252   -0.4213    1.8773 C   0  0  0  0  0  0  0  0  0  0  0  0
    3.8667    1.0876    1.6624 C   0  0  0  0  0  0  0  0  0  0  0  0
    3.6374    3.3845   -2.4702 H   0  0  0  0  0  0  0  0  0  0  0  0
    4.8720    2.1228   -2.4435 H   0  0  0  0  0  0  0  0  0  0  0  0
    5.0468    3.5635   -1.4251 H   0  0  0  0  0  0  0  0  0  0  0  0
    2.9968    2.9165   -0.1583 H   0  0  0  0  0  0  0  0  0  0  0  0
    2.2211    0.4470   -0.4448 H   0  0  0  0  0  0  0  0  0  0  0  0
    3.1007    0.4562   -1.9815 H   0  0  0  0  0  0  0  0  0  0  0  0
    0.8062   -0.2139   -2.4251 H   0  0  0  0  0  0  0  0  0  0  0  0
   -0.7501    0.5673   -4.0953 H   0  0  0  0  0  0  0  0  0  0  0  0
   -0.7297    2.1771   -3.3753 H   0  0  0  0  0  0  0  0  0  0  0  0
   -2.2624   -1.1357   -3.2617 H   0  0  0  0  0  0  0  0  0  0  0  0
   -4.1089   -1.7591   -1.7690 H   0  0  0  0  0  0  0  0  0  0  0  0
   -4.3704   -2.3170    0.4018 H   0  0  0  0  0  0  0  0  0  0  0  0
   -5.1241   -4.2768    1.3839 H   0  0  0  0  0  0  0  0  0  0  0  0
   -6.8103   -5.3953    2.8124 H   0  0  0  0  0  0  0  0  0  0  0  0
   -8.8841   -1.8892    3.3964 H   0  0  0  0  0  0  0  0  0  0  0  0
   -7.3200   -0.5978    2.0044 H   0  0  0  0  0  0  0  0  0  0  0  0
   -3.4776    1.8442    0.5265 H   0  0  0  0  0  0  0  0  0  0  0  0
   -1.6329    2.4784   -0.9873 H   0  0  0  0  0  0  0  0  0  0  0  0
    5.2154    2.3931    0.6704 H   0  0  0  0  0  0  0  0  0  0  0  0
    4.9474   -0.2764   -0.7785 H   0  0  0  0  0  0  0  0  0  0  0  0
    6.2232    0.9287   -0.9022 H   0  0  0  0  0  0  0  0  0  0  0  0
    6.8823    0.5100    1.4459 H   0  0  0  0  0  0  0  0  0  0  0  0
    6.9904   -0.9491    0.4761 H   0  0  0  0  0  0  0  0  0  0  0  0
    5.3401   -2.0211    1.6663 H   0  0  0  0  0  0  0  0  0  0  0  0
    5.7797   -0.8547    2.8978 H   0  0  0  0  0  0  0  0  0  0  0  0
    3.3621   -0.9261    1.0834 H   0  0  0  0  0  0  0  0  0  0  0  0
    3.4311   -0.6852    2.8195 H   0  0  0  0  0  0  0  0  0  0  0  0
    2.8243    1.4257    1.6910 H   0  0  0  0  0  0  0  0  0  0  0  0
    4.3580    1.5723    2.5170 H   0  0  0  0  0  0  0  0  0  0  0  0
  1  2  1  0
  2  3  1  0
  3  4  1  0
  4  5  2  0
  4  6  1  0
  6  7  1  0
  7  8  1  0
  8  9  1  0
  9 10  2  0
 10 11  1  0
 11 12  1  0
 12 13  2  0
 12 14  1  0
 14 15  1  0
 15 16  2  0
 16 17  1  0
 17 18  2  0
 18 19  1  0
 19 20  2  0
 11 21  2  0
 21 22  1  0
  2 23  1  0
 23 24  1  0
 24 25  1  0
 25 26  1  0
 26 27  1  0
 27 28  1  0
 22  8  2  0
 28 23  1  0
 20 15  1  0
  1 29  1  0
  1 30  1  0
  1 31  1  0
  2 32  1  0
  3 33  1  0
  3 34  1  0
  6 35  1  0
  7 36  1  0
  7 37  1  0
  9 38  1  0
 10 39  1  0
 14 40  1  0
 16 41  1  0
 17 42  1  0
 19 43  1  0
 20 44  1  0
 21 45  1  0
 22 46  1  0
 23 47  1  0
 24 48  1  0
 24 49  1  0
 25 50  1  0
 25 51  1  0
 26 52  1  0
 26 53  1  0
 27 54  1  0
 27 55  1  0
 28 56  1  0
 28 57  1  0
M  END
$$$$
OCNT-2313195
     RDKit          3D

 57 60  0  0  0  0  0  0  0  0999 V2000
    4.9634   -2.2114   -0.5871 C   0  0  0  0  0  0  0  0  0  0  0  0
    5.5937   -0.8510   -0.7053 C   0  0  0  0  0  0  0  0  0  0  0  0
    6.9261   -0.7369   -1.1302 C   0  0  0  0  0  0  0  0  0  0  0  0
    7.5258    0.5154   -1.2497 C   0  0  0  0  0  0  0  0  0  0  0  0
    6.8001    1.6634   -0.9445 C   0  0  0  0  0  0  0  0  0  0  0  0
    5.4729    1.5631   -0.5199 C   0  0  0  0  0  0  0  0  0  0  0  0
    4.8613    0.3113   -0.4006 C   0  0  0  0  0  0  0  0  0  0  0  0
    3.5698    0.1058    0.0070 O   0  0  0  0  0  0  0  0  0  0  0  0
    2.7515    1.2606    0.2242 C   0  0  0  0  0  0  0  0  0  0  0  0
    1.3352    0.7887    0.5967 C   0  0  0  0  0  0  0  0  0  0  0  0
    1.4214    0.0641    1.8334 O   0  0  0  0  0  0  0  0  0  0  0  0
    0.7325   -0.1013   -0.5228 C   0  0  0  0  0  0  0  0  0  0  0  0
   -0.7148   -0.3310   -0.5305 N   0  0  0  0  0  0  0  0  0  0  0  0
   -1.2696   -1.0566    0.6157 C   0  0  0  0  0  0  0  0  0  0  0  0
   -2.7154   -0.5423    0.7827 C   0  0  0  0  0  0  0  0  0  0  0  0
   -3.7438   -1.6718    0.9880 C   0  0  0  0  0  0  0  0  0  0  0  0
   -4.0831   -2.4335   -0.2872 C   0  0  0  0  0  0  0  0  0  0  0  0
   -4.5723   -1.4782   -1.3662 C   0  0  0  0  0  0  0  0  0  0  0  0
   -3.5009   -0.4479   -1.6999 C   0  0  0  0  0  0  0  0  0  0  0  0
   -2.9582    0.3149   -0.4726 C   0  0  0  0  0  0  0  0  0  0  0  0
   -3.9198    1.3910    0.0275 C   0  0  0  0  0  0  0  0  0  0  0  0
   -3.4066    1.7194    1.3585 N   0  0  0  0  0  0  0  0  0  0  0  0
   -4.3965    2.3569    2.2112 C   0  0  0  0  0  0  0  0  0  0  0  0
   -2.8415    0.4894    1.9411 C   0  0  0  0  0  0  0  0  0  0  0  0
   -1.5427    0.8527   -0.7646 C   0  0  0  0  0  0  0  0  0  0  0  0
    4.6320   -2.3877    0.4417 H   0  0  0  0  0  0  0  0  0  0  0  0
    5.6701   -3.0065   -0.8479 H   0  0  0  0  0  0  0  0  0  0  0  0
    4.1070   -2.2917   -1.2647 H   0  0  0  0  0  0  0  0  0  0  0  0
    7.5049   -1.6259   -1.3710 H   0  0  0  0  0  0  0  0  0  0  0  0
    8.5582    0.5946   -1.5798 H   0  0  0  0  0  0  0  0  0  0  0  0
    7.2680    2.6405   -1.0352 H   0  0  0  0  0  0  0  0  0  0  0  0
    4.9474    2.4830   -0.2880 H   0  0  0  0  0  0  0  0  0  0  0  0
    2.7068    1.8754   -0.6825 H   0  0  0  0  0  0  0  0  0  0  0  0
    3.1637    1.8398    1.0591 H   0  0  0  0  0  0  0  0  0  0  0  0
    0.7164    1.6719    0.7773 H   0  0  0  0  0  0  0  0  0  0  0  0
    2.1045   -0.6200    1.6971 H   0  0  0  0  0  0  0  0  0  0  0  0
    0.9910    0.3342   -1.4965 H   0  0  0  0  0  0  0  0  0  0  0  0
    1.2170   -1.0860   -0.4955 H   0  0  0  0  0  0  0  0  0  0  0  0
   -0.7108   -0.9223    1.5437 H   0  0  0  0  0  0  0  0  0  0  0  0
   -1.2438   -2.1274    0.3864 H   0  0  0  0  0  0  0  0  0  0  0  0
   -4.6812   -1.2560    1.3816 H   0  0  0  0  0  0  0  0  0  0  0  0
   -3.3793   -2.3726    1.7492 H   0  0  0  0  0  0  0  0  0  0  0  0
   -4.8633   -3.1729   -0.0730 H   0  0  0  0  0  0  0  0  0  0  0  0
   -3.2089   -2.9892   -0.6454 H   0  0  0  0  0  0  0  0  0  0  0  0
   -5.4913   -0.9794   -1.0381 H   0  0  0  0  0  0  0  0  0  0  0  0
   -4.8270   -2.0445   -2.2694 H   0  0  0  0  0  0  0  0  0  0  0  0
   -3.8969    0.2660   -2.4329 H   0  0  0  0  0  0  0  0  0  0  0  0
   -2.6860   -0.9768   -2.2112 H   0  0  0  0  0  0  0  0  0  0  0  0
   -4.9443    1.0042    0.0862 H   0  0  0  0  0  0  0  0  0  0  0  0
   -3.9205    2.2723   -0.6227 H   0  0  0  0  0  0  0  0  0  0  0  0
   -3.9552    2.6215    3.1783 H   0  0  0  0  0  0  0  0  0  0  0  0
   -4.7503    3.2887    1.7563 H   0  0  0  0  0  0  0  0  0  0  0  0
   -5.2640    1.7122    2.3934 H   0  0  0  0  0  0  0  0  0  0  0  0
   -3.4638    0.0923    2.7531 H   0  0  0  0  0  0  0  0  0  0  0  0
   -1.8703    0.7382    2.3831 H   0  0  0  0  0  0  0  0  0  0  0  0
   -1.2690    1.6804   -0.1031 H   0  0  0  0  0  0  0  0  0  0  0  0
   -1.4495    1.2088   -1.7965 H   0  0  0  0  0  0  0  0  0  0  0  0
  1  2  1  0
  2  3  2  0
  3  4  1  0
  4  5  2  0
  5  6  1  0
  6  7  2  0
  7  8  1  0
  8  9  1  0
  9 10  1  0
 10 11  1  0
 10 12  1  0
 12 13  1  0
 13 14  1  0
 14 15  1  0
 15 16  1  0
 16 17  1  0
 17 18  1  0
 18 19  1  0
 19 20  1  0
 20 21  1  0
 21 22  1  0
 22 23  1  0
 22 24  1  0
 20 25  1  0
  7  2  1  0
 25 13  1  0
 20 15  1  0
 24 15  1  0
  1 26  1  0
  1 27  1  0
  1 28  1  0
  3 29  1  0
  4 30  1  0
  5 31  1  0
  6 32  1  0
  9 33  1  0
  9 34  1  0
 10 35  1  0
 11 36  1  0
 12 37  1  0
 12 38  1  0
 14 39  1  0
 14 40  1  0
 16 41  1  0
 16 42  1  0
 17 43  1  0
 17 44  1  0
 18 45  1  0
 18 46  1  0
 19 47  1  0
 19 48  1  0
 21 49  1  0
 21 50  1  0
 23 51  1  0
 23 52  1  0
 23 53  1  0
 24 54  1  0
 24 55  1  0
 25 56  1  0
 25 57  1  0
M  END
$$$$
OCNT-2313201
     RDKit          3D

 57 59  0  0  0  0  0  0  0  0999 V2000
    8.5176    2.1904    0.4906 C   0  0  0  0  0  0  0  0  0  0  0  0
    8.8233    0.7349    0.1523 C   0  0  0  0  0  0  0  0  0  0  0  0
    8.0494   -0.2973    0.9916 C   0  0  0  0  0  0  0  0  0  0  0  0
    8.3975   -0.2273    2.4784 C   0  0  0  0  0  0  0  0  0  0  0  0
    6.6107   -0.1652    0.8053 N   0  0  0  0  0  0  0  0  0  0  0  0
    5.9617   -0.7037   -0.2843 C   0  0  0  0  0  0  0  0  0  0  0  0
    6.5026   -1.3934   -1.1396 O   0  0  0  0  0  0  0  0  0  0  0  0
    4.5071   -0.4201   -0.3702 C   0  0  0  0  0  0  0  0  0  0  0  0
    3.9875    0.8381   -0.0538 C   0  0  0  0  0  0  0  0  0  0  0  0
    2.6113    1.0663   -0.1541 C   0  0  0  0  0  0  0  0  0  0  0  0
    1.7416    0.0438   -0.5611 C   0  0  0  0  0  0  0  0  0  0  0  0
    0.3691    0.3579   -0.6358 N   0  0  0  0  0  0  0  0  0  0  0  0
   -0.6888   -0.5202   -0.8266 C   0  0  0  0  0  0  0  0  0  0  0  0
   -0.5883   -1.7400   -0.8767 O   0  0  0  0  0  0  0  0  0  0  0  0
   -1.8772    0.1702   -0.9355 N   0  0  0  0  0  0  0  0  0  0  0  0
   -3.1249   -0.3947   -1.0313 C   0  0  0  0  0  0  0  0  0  0  0  0
   -4.1782    0.4106   -1.1992 N   0  0  0  0  0  0  0  0  0  0  0  0
   -5.2376   -0.4290   -1.2025 N   0  0  0  0  0  0  0  0  0  0  0  0
   -6.5885    0.0923   -1.3776 C   0  0  0  0  0  0  0  0  0  0  0  0
   -7.2500    0.3988   -0.0508 C   0  0  0  0  0  0  0  0  0  0  0  0
   -6.8542    1.5656    0.6347 C   0  0  0  0  0  0  0  0  0  0  0  0
   -7.4155    1.9056    1.8636 C   0  0  0  0  0  0  0  0  0  0  0  0
   -8.3856    1.0869    2.4295 C   0  0  0  0  0  0  0  0  0  0  0  0
   -8.7885   -0.0743    1.7699 C   0  0  0  0  0  0  0  0  0  0  0  0
   -8.2303   -0.4355    0.5307 C   0  0  0  0  0  0  0  0  0  0  0  0
   -8.7054   -1.7030   -0.1291 C   0  0  0  0  0  0  0  0  0  0  0  0
   -4.8807   -1.7422   -1.0962 C   0  0  0  0  0  0  0  0  0  0  0  0
   -3.5119   -1.7495   -0.9657 C   0  0  0  0  0  0  0  0  0  0  0  0
    2.2737   -1.2053   -0.8905 C   0  0  0  0  0  0  0  0  0  0  0  0
    3.6509   -1.4346   -0.8050 C   0  0  0  0  0  0  0  0  0  0  0  0
    7.4568    2.4211    0.3457 H   0  0  0  0  0  0  0  0  0  0  0  0
    8.7874    2.4295    1.5247 H   0  0  0  0  0  0  0  0  0  0  0  0
    9.0947    2.8535   -0.1633 H   0  0  0  0  0  0  0  0  0  0  0  0
    9.8988    0.5643    0.2789 H   0  0  0  0  0  0  0  0  0  0  0  0
    8.6024    0.5747   -0.9117 H   0  0  0  0  0  0  0  0  0  0  0  0
    8.3354   -1.2933    0.6303 H   0  0  0  0  0  0  0  0  0  0  0  0
    9.4780   -0.3179    2.6350 H   0  0  0  0  0  0  0  0  0  0  0  0
    8.0583    0.7090    2.9358 H   0  0  0  0  0  0  0  0  0  0  0  0
    7.9091   -1.0456    3.0232 H   0  0  0  0  0  0  0  0  0  0  0  0
    6.0838    0.3683    1.4832 H   0  0  0  0  0  0  0  0  0  0  0  0
    4.6424    1.6538    0.2405 H   0  0  0  0  0  0  0  0  0  0  0  0
    2.2318    2.0546    0.0893 H   0  0  0  0  0  0  0  0  0  0  0  0
    0.1119    1.3040   -0.3926 H   0  0  0  0  0  0  0  0  0  0  0  0
   -1.8899    1.1709   -1.0357 H   0  0  0  0  0  0  0  0  0  0  0  0
   -6.5215    1.0017   -1.9895 H   0  0  0  0  0  0  0  0  0  0  0  0
   -7.1501   -0.6391   -1.9665 H   0  0  0  0  0  0  0  0  0  0  0  0
   -6.0866    2.2129    0.2107 H   0  0  0  0  0  0  0  0  0  0  0  0
   -7.0910    2.8037    2.3797 H   0  0  0  0  0  0  0  0  0  0  0  0
   -8.8192    1.3424    3.3923 H   0  0  0  0  0  0  0  0  0  0  0  0
   -9.5440   -0.7046    2.2360 H   0  0  0  0  0  0  0  0  0  0  0  0
   -9.4567   -2.2165    0.4813 H   0  0  0  0  0  0  0  0  0  0  0  0
   -9.1654   -1.4809   -1.0987 H   0  0  0  0  0  0  0  0  0  0  0  0
   -7.8717   -2.3981   -0.2658 H   0  0  0  0  0  0  0  0  0  0  0  0
   -5.6063   -2.5418   -1.1053 H   0  0  0  0  0  0  0  0  0  0  0  0
   -2.8835   -2.6193   -0.8373 H   0  0  0  0  0  0  0  0  0  0  0  0
    1.6458   -2.0225   -1.2356 H   0  0  0  0  0  0  0  0  0  0  0  0
    4.0508   -2.4107   -1.0754 H   0  0  0  0  0  0  0  0  0  0  0  0
  1  2  1  0
  2  3  1  0
  3  4  1  0
  3  5  1  0
  5  6  1  0
  6  7  2  0
  6  8  1  0
  8  9  1  0
  9 10  2  0
 10 11  1  0
 11 12  1  0
 12 13  1  0
 13 14  2  0
 13 15  1  0
 15 16  1  0
 16 17  2  0
 17 18  1  0
 18 19  1  0
 19 20  1  0
 20 21  2  0
 21 22  1  0
 22 23  2  0
 23 24  1  0
 24 25  2  0
 25 26  1  0
 18 27  1  0
 27 28  2  0
 11 29  2  0
 29 30  1  0
 30  8  2  0
 28 16  1  0
 25 20  1  0
  1 31  1  0
  1 32  1  0
  1 33  1  0
  2 34  1  0
  2 35  1  0
  3 36  1  0
  4 37  1  0
  4 38  1  0
  4 39  1  0
  5 40  1  0
  9 41  1  0
 10 42  1  0
 12 43  1  0
 15 44  1  0
 19 45  1  0
 19 46  1  0
 21 47  1  0
 22 48  1  0
 23 49  1  0
 24 50  1  0
 26 51  1  0
 26 52  1  0
 26 53  1  0
 27 54  1  0
 28 55  1  0
 29 56  1  0
 30 57  1  0
M  END
$$$$
OCNT-2313211
     RDKit          3D

  0  0  0  0  0  0  0  0  0  0999 V3000
M  V30 BEGIN CTAB
M  V30 COUNTS 50 52 0 0 0
M  V30 BEGIN ATOM
M  V30 1 C 4.384711 0.840504 2.144433 0
M  V30 2 C 4.130473 -0.320752 1.253501 0
M  V30 3 N 4.483500 -1.552315 1.641739 0
M  V30 4 N 4.101132 -2.338946 0.629228 0
M  V30 5 C 3.529258 -1.661396 -0.409600 0
M  V30 6 C 3.033068 -2.359450 -1.616084 0
M  V30 7 C 3.527793 -0.328004 -0.036093 0
M  V30 8 C 3.005495 0.847136 -0.789222 0
M  V30 9 C 1.683113 1.323874 -0.212361 0
M  V30 10 O 1.608088 2.264611 0.572790 0
M  V30 11 N 0.589268 0.607255 -0.662772 0
M  V30 12 C -0.727234 0.779157 -0.055756 0 CFG=1
M  V30 13 C -1.282118 2.211183 -0.055035 0
M  V30 14 N -2.715912 2.001183 0.185533 0
M  V30 15 C -3.548949 3.187625 -0.109459 0
M  V30 16 C -3.258902 4.488849 0.664826 0
M  V30 17 F -4.201507 5.419659 0.376177 0
M  V30 18 F -2.062673 5.015334 0.323395 0
M  V30 19 F -3.272982 4.302443 2.001012 0
M  V30 20 C -3.109240 0.817460 -0.589599 0
M  V30 21 C -1.812657 0.030225 -0.853942 0 CFG=2
M  V30 22 C -1.904765 -1.453321 -0.567175 0
M  V30 23 C -1.769722 -2.373591 -1.617655 0
M  V30 24 C -1.857931 -3.746884 -1.378646 0
M  V30 25 C -2.077521 -4.218870 -0.087894 0
M  V30 26 C -2.215944 -3.317235 0.964163 0
M  V30 27 C -2.135450 -1.942888 0.726861 0
M  V30 28 H 4.740478 1.700645 1.567216 0
M  V30 29 H 3.464408 1.132388 2.657238 0
M  V30 30 H 5.138021 0.605175 2.902951 0
M  V30 31 H 4.260907 -3.336503 0.714957 0
M  V30 32 H 3.165737 -1.739142 -2.507230 0
M  V30 33 H 1.967063 -2.583768 -1.510130 0
M  V30 34 H 3.568588 -3.298641 -1.780169 0
M  V30 35 H 2.866581 0.609514 -1.849844 0
M  V30 36 H 3.720018 1.678310 -0.751884 0
M  V30 37 H 0.810955 -0.347704 -0.917459 0
M  V30 38 H -0.652743 0.419724 0.978593 0
M  V30 39 H -0.836262 2.817769 0.737254 0
M  V30 40 H -1.099687 2.697613 -1.020574 0
M  V30 41 H -3.491765 3.421603 -1.180165 0
M  V30 42 H -4.593539 2.921426 0.098113 0
M  V30 43 H -3.556558 1.088919 -1.554314 0
M  V30 44 H -3.855788 0.245152 -0.032520 0
M  V30 45 H -1.578368 0.155450 -1.923277 0
M  V30 46 H -1.603761 -2.029311 -2.635910 0
M  V30 47 H -1.760453 -4.448897 -2.203149 0
M  V30 48 H -2.145647 -5.287653 0.096251 0
M  V30 49 H -2.392635 -3.683079 1.970834 0
M  V30 50 H -2.257942 -1.261832 1.564592 0
M  V30 END ATOM
M  V30 BEGIN BOND
M  V30 1 1 1 2
M  V30 2 2 2 3
M  V30 3 1 3 4
M  V30 4 1 4 5
M  V30 5 1 5 6
M  V30 6 2 5 7
M  V30 7 1 7 8
M  V30 8 1 8 9
M  V30 9 2 9 10
M  V30 10 1 9 11
M  V30 11 1 11 12
M  V30 12 1 12 13
M  V30 13 1 13 14
M  V30 14 1 14 15
M  V30 15 1 15 16
M  V30 16 1 16 17
M  V30 17 1 16 18
M  V30 18 1 16 19
M  V30 19 1 14 20
M  V30 20 1 20 21
M  V30 21 1 21 22
M  V30 22 2 22 23
M  V30 23 1 23 24
M  V30 24 2 24 25
M  V30 25 1 25 26
M  V30 26 2 26 27
M  V30 27 1 7 2
M  V30 28 1 21 12
M  V30 29 1 27 22
M  V30 30 1 1 28
M  V30 31 1 1 29
M  V30 32 1 1 30
M  V30 33 1 4 31
M  V30 34 1 6 32
M  V30 35 1 6 33
M  V30 36 1 6 34
M  V30 37 1 8 35
M  V30 38 1 8 36
M  V30 39 1 11 37
M  V30 40 1 12 38 CFG=1
M  V30 41 1 13 39
M  V30 42 1 13 40
M  V30 43 1 15 41
M  V30 44 1 15 42
M  V30 45 1 20 43
M  V30 46 1 20 44
M  V30 47 1 21 45 CFG=3
M  V30 48 1 23 46
M  V30 49 1 24 47
M  V30 50 1 25 48
M  V30 51 1 26 49
M  V30 52 1 27 50
M  V30 END BOND
M  V30 BEGIN COLLECTION
M  V30 MDLV30/STERAC1 ATOMS=(2 12 21)
M  V30 END COLLECTION
M  V30 END CTAB
M  END
>  <_CXSMILES_Data>  (719) 
|&1:11,20|

$$$$
OCNT-2313233
     RDKit          3D

 43 45  0  0  0  0  0  0  0  0999 V2000
    6.6888   -2.3854   -2.8744 N   0  0  0  0  0  0  0  0  0  0  0  0
    6.0121   -2.0936   -1.9779 C   0  0  0  0  0  0  0  0  0  0  0  0
    5.1719   -1.7224   -0.8771 C   0  0  0  0  0  0  0  0  0  0  0  0
    4.4819   -2.7040   -0.1600 C   0  0  0  0  0  0  0  0  0  0  0  0
    3.6672   -2.3408    0.9121 C   0  0  0  0  0  0  0  0  0  0  0  0
    3.5377   -0.9977    1.2681 C   0  0  0  0  0  0  0  0  0  0  0  0
    4.2165   -0.0000    0.5531 C   0  0  0  0  0  0  0  0  0  0  0  0
    4.0720    1.4515    0.9462 C   0  0  0  0  0  0  0  0  0  0  0  0
    2.6378    1.9415    0.8587 C   0  0  0  0  0  0  0  0  0  0  0  0
    1.9334    2.0989    1.8512 O   0  0  0  0  0  0  0  0  0  0  0  0
    2.1963    2.1788   -0.4256 N   0  0  0  0  0  0  0  0  0  0  0  0
    0.8218    2.5649   -0.6912 C   0  0  0  0  0  0  0  0  0  0  0  0
   -0.1712    1.3992   -0.5445 C   0  0  0  0  0  0  0  0  0  0  0  0
   -1.5010    1.8218   -0.9897 N   0  0  0  0  0  0  0  0  0  0  0  0
   -2.4835    0.8392   -0.8372 C   0  0  0  0  0  0  0  0  0  0  0  0
   -2.4120   -0.3842   -1.4870 C   0  0  0  0  0  0  0  0  0  0  0  0
   -3.4360   -1.3064   -1.2992 C   0  0  0  0  0  0  0  0  0  0  0  0
   -4.5137   -0.9809   -0.4713 C   0  0  0  0  0  0  0  0  0  0  0  0
   -5.5745   -1.8766   -0.2469 C   0  0  0  0  0  0  0  0  0  0  0  0
   -6.6347   -1.5165    0.5821 C   0  0  0  0  0  0  0  0  0  0  0  0
   -6.6387   -0.2646    1.1865 C   0  0  0  0  0  0  0  0  0  0  0  0
   -5.5815    0.6220    0.9589 C   0  0  0  0  0  0  0  0  0  0  0  0
   -4.5115    0.2898    0.1382 C   0  0  0  0  0  0  0  0  0  0  0  0
   -3.5183    1.1788   -0.0475 N   0  0  0  0  0  0  0  0  0  0  0  0
    5.0398   -0.3741   -0.5195 C   0  0  0  0  0  0  0  0  0  0  0  0
    4.5769   -3.7549   -0.4271 H   0  0  0  0  0  0  0  0  0  0  0  0
    3.1338   -3.1039    1.4748 H   0  0  0  0  0  0  0  0  0  0  0  0
    2.9004   -0.7324    2.1121 H   0  0  0  0  0  0  0  0  0  0  0  0
    4.6964    2.0943    0.3137 H   0  0  0  0  0  0  0  0  0  0  0  0
    4.4300    1.5879    1.9736 H   0  0  0  0  0  0  0  0  0  0  0  0
    2.7602    1.8578   -1.2026 H   0  0  0  0  0  0  0  0  0  0  0  0
    0.5479    3.3779   -0.0085 H   0  0  0  0  0  0  0  0  0  0  0  0
    0.7950    2.9634   -1.7115 H   0  0  0  0  0  0  0  0  0  0  0  0
   -0.2049    1.0657    0.5001 H   0  0  0  0  0  0  0  0  0  0  0  0
    0.1905    0.5589   -1.1495 H   0  0  0  0  0  0  0  0  0  0  0  0
   -1.8531    2.5820   -0.4034 H   0  0  0  0  0  0  0  0  0  0  0  0
   -1.5852   -0.6159   -2.1478 H   0  0  0  0  0  0  0  0  0  0  0  0
   -3.3904   -2.2665   -1.8054 H   0  0  0  0  0  0  0  0  0  0  0  0
   -5.5786   -2.8567   -0.7179 H   0  0  0  0  0  0  0  0  0  0  0  0
   -7.4541   -2.2095    0.7544 H   0  0  0  0  0  0  0  0  0  0  0  0
   -7.4604    0.0283    1.8348 H   0  0  0  0  0  0  0  0  0  0  0  0
   -5.5919    1.5998    1.4347 H   0  0  0  0  0  0  0  0  0  0  0  0
    5.5869    0.3846   -1.0778 H   0  0  0  0  0  0  0  0  0  0  0  0
  1  2  3  0
  2  3  1  0
  3  4  1  0
  4  5  2  0
  5  6  1  0
  6  7  2  0
  7  8  1  0
  8  9  1  0
  9 10  2  0
  9 11  1  0
 11 12  1  0
 12 13  1  0
 13 14  1  0
 14 15  1  0
 15 16  1  0
 16 17  2  0
 17 18  1  0
 18 19  2  0
 19 20  1  0
 20 21  2  0
 21 22  1  0
 22 23  2  0
 23 24  1  0
  7 25  1  0
 25  3  2  0
 24 15  2  0
 23 18  1  0
  4 26  1  0
  5 27  1  0
  6 28  1  0
  8 29  1  0
  8 30  1  0
 11 31  1  0
 12 32  1  0
 12 33  1  0
 13 34  1  0
 13 35  1  0
 14 36  1  0
 16 37  1  0
 17 38  1  0
 19 39  1  0
 20 40  1  0
 21 41  1  0
 22 42  1  0
 25 43  1  0
M  END
$$$$
OCNT-2313237
     RDKit          3D

 62 66  0  0  0  0  0  0  0  0999 V2000
   -5.9674   -0.3115   -2.9870 C   0  0  0  0  0  0  0  0  0  0  0  0
   -5.3490    0.4081   -1.8197 C   0  0  0  0  0  0  0  0  0  0  0  0
   -5.9123    1.5860   -1.3388 C   0  0  0  0  0  0  0  0  0  0  0  0
   -5.3563    2.2235   -0.2309 C   0  0  0  0  0  0  0  0  0  0  0  0
   -4.2306    1.6992    0.4401 C   0  0  0  0  0  0  0  0  0  0  0  0
   -3.8018    2.4227    1.6854 C   0  0  0  0  0  0  0  0  0  0  0  0
   -3.6299    0.5331   -0.0652 C   0  0  0  0  0  0  0  0  0  0  0  0
   -2.4916   -0.1293    0.4510 N   0  0  0  0  0  0  0  0  0  0  0  0
   -1.4354    0.3535    1.1991 C   0  0  0  0  0  0  0  0  0  0  0  0
   -1.2116    1.5447    1.4126 O   0  0  0  0  0  0  0  0  0  0  0  0
   -0.4240   -0.7404    1.6883 C   0  0  0  0  0  0  0  0  0  0  0  0
   -0.9678   -2.1781    1.6799 C   0  0  0  0  0  0  0  0  0  0  0  0
   -0.4244   -3.1956    0.8838 C   0  0  0  0  0  0  0  0  0  0  0  0
   -0.9660   -4.4844    0.8886 C   0  0  0  0  0  0  0  0  0  0  0  0
   -2.0588   -4.7810    1.6956 C   0  0  0  0  0  0  0  0  0  0  0  0
   -2.6054   -3.7932    2.5072 C   0  0  0  0  0  0  0  0  0  0  0  0
   -2.0621   -2.5063    2.5062 C   0  0  0  0  0  0  0  0  0  0  0  0
    0.9063   -0.5980    1.0349 N   0  0  0  0  0  0  0  0  0  0  0  0
    0.8987   -0.3716   -0.4170 C   0  0  0  0  0  0  0  0  0  0  0  0
    1.4487    0.9986   -0.8295 C   0  0  0  0  0  0  0  0  0  0  0  0
    2.8882    1.2045   -0.3201 C   0  0  0  0  0  0  0  0  0  0  0  0
    3.9045    0.7446   -1.3286 C   0  0  0  0  0  0  0  0  0  0  0  0
    3.6846   -0.0555   -2.3589 N   0  0  0  0  0  0  0  0  0  0  0  0
    4.8641   -0.2160   -3.0470 N   0  0  0  0  0  0  0  0  0  0  0  0
    5.7905    0.4767   -2.4246 C   0  0  0  0  0  0  0  0  0  0  0  0
    7.1740    0.6817   -2.6773 C   0  0  0  0  0  0  0  0  0  0  0  0
    7.8937    1.4539   -1.8434 C   0  0  0  0  0  0  0  0  0  0  0  0
    7.2847    2.0951   -0.6861 C   0  0  0  0  0  0  0  0  0  0  0  0
    5.9737    1.9134   -0.4521 C   0  0  0  0  0  0  0  0  0  0  0  0
    5.2368    1.1053   -1.3169 N   0  0  0  0  0  0  0  0  0  0  0  0
    3.1106    0.5066    1.0341 C   0  0  0  0  0  0  0  0  0  0  0  0
    1.7957    0.2960    1.7779 C   0  0  0  0  0  0  0  0  0  0  0  0
   -4.2250   -0.1147   -1.1694 C   0  0  0  0  0  0  0  0  0  0  0  0
   -6.7879   -0.9533   -2.6405 H   0  0  0  0  0  0  0  0  0  0  0  0
   -5.2307   -0.9398   -3.5020 H   0  0  0  0  0  0  0  0  0  0  0  0
   -6.3511    0.3962   -3.7268 H   0  0  0  0  0  0  0  0  0  0  0  0
   -6.7918    2.0126   -1.8186 H   0  0  0  0  0  0  0  0  0  0  0  0
   -5.8290    3.1351    0.1285 H   0  0  0  0  0  0  0  0  0  0  0  0
   -3.0075    3.1461    1.4711 H   0  0  0  0  0  0  0  0  0  0  0  0
   -4.6428    2.9711    2.1213 H   0  0  0  0  0  0  0  0  0  0  0  0
   -3.4912    1.7156    2.4630 H   0  0  0  0  0  0  0  0  0  0  0  0
   -2.3407   -1.0597    0.0763 H   0  0  0  0  0  0  0  0  0  0  0  0
   -0.2842   -0.5301    2.7601 H   0  0  0  0  0  0  0  0  0  0  0  0
    0.4412   -3.0064    0.2551 H   0  0  0  0  0  0  0  0  0  0  0  0
   -0.5238   -5.2624    0.2703 H   0  0  0  0  0  0  0  0  0  0  0  0
   -2.4701   -5.7874    1.7022 H   0  0  0  0  0  0  0  0  0  0  0  0
   -3.4569   -4.0213    3.1416 H   0  0  0  0  0  0  0  0  0  0  0  0
   -2.5081   -1.7541    3.1544 H   0  0  0  0  0  0  0  0  0  0  0  0
   -0.0918   -0.5171   -0.8615 H   0  0  0  0  0  0  0  0  0  0  0  0
    1.5274   -1.1482   -0.8701 H   0  0  0  0  0  0  0  0  0  0  0  0
    1.3852    1.1151   -1.9174 H   0  0  0  0  0  0  0  0  0  0  0  0
    0.8066    1.7838   -0.4115 H   0  0  0  0  0  0  0  0  0  0  0  0
    3.0252    2.2865   -0.1893 H   0  0  0  0  0  0  0  0  0  0  0  0
    7.6247    0.2176   -3.5479 H   0  0  0  0  0  0  0  0  0  0  0  0
    8.9510    1.6178   -2.0251 H   0  0  0  0  0  0  0  0  0  0  0  0
    7.8997    2.7137   -0.0420 H   0  0  0  0  0  0  0  0  0  0  0  0
    5.4615    2.3735    0.3820 H   0  0  0  0  0  0  0  0  0  0  0  0
    3.6071   -0.4665    0.9030 H   0  0  0  0  0  0  0  0  0  0  0  0
    3.7850    1.1069    1.6594 H   0  0  0  0  0  0  0  0  0  0  0  0
    2.0215   -0.1506    2.7533 H   0  0  0  0  0  0  0  0  0  0  0  0
    1.3309    1.2701    1.9690 H   0  0  0  0  0  0  0  0  0  0  0  0
   -3.7947   -1.0361   -1.5624 H   0  0  0  0  0  0  0  0  0  0  0  0
  1  2  1  0
  2  3  1  0
  3  4  2  0
  4  5  1  0
  5  6  1  0
  5  7  2  0
  7  8  1  0
  8  9  1  0
  9 10  2  0
  9 11  1  0
 11 12  1  0
 12 13  2  0
 13 14  1  0
 14 15  2  0
 15 16  1  0
 16 17  2  0
 11 18  1  0
 18 19  1  0
 19 20  1  0
 20 21  1  0
 21 22  1  0
 22 23  2  0
 23 24  1  0
 24 25  2  0
 25 26  1  0
 26 27  2  0
 27 28  1  0
 28 29  2  0
 29 30  1  0
 21 31  1  0
 31 32  1  0
  7 33  1  0
 33  2  2  0
 17 12  1  0
 32 18  1  0
 30 22  1  0
 30 25  1  0
  1 34  1  0
  1 35  1  0
  1 36  1  0
  3 37  1  0
  4 38  1  0
  6 39  1  0
  6 40  1  0
  6 41  1  0
  8 42  1  0
 11 43  1  0
 13 44  1  0
 14 45  1  0
 15 46  1  0
 16 47  1  0
 17 48  1  0
 19 49  1  0
 19 50  1  0
 20 51  1  0
 20 52  1  0
 21 53  1  0
 26 54  1  0
 27 55  1  0
 28 56  1  0
 29 57  1  0
 31 58  1  0
 31 59  1  0
 32 60  1  0
 32 61  1  0
 33 62  1  0
M  END
$$$$
OCNT-2313239
     RDKit          3D

 56 57  0  0  0  0  0  0  0  0999 V2000
   -1.6947    2.7945    2.2448 C   0  0  0  0  0  0  0  0  0  0  0  0
   -2.0052    1.5613    1.4091 C   0  0  0  0  0  0  0  0  0  0  0  0
   -3.3418    1.6482    0.8343 N   0  0  0  0  0  0  0  0  0  0  0  0
   -4.0474    0.4879    0.5708 C   0  0  0  0  0  0  0  0  0  0  0  0
   -3.6866   -0.6102    0.9760 O   0  0  0  0  0  0  0  0  0  0  0  0
   -5.3004    0.7477   -0.2555 C   0  0  0  0  0  0  0  0  0  0  0  0
   -6.1960   -0.4686   -0.5933 C   0  0  0  0  0  0  0  0  0  0  0  0
   -7.3946    0.0460   -1.4191 C   0  0  0  0  0  0  0  0  0  0  0  0
   -5.4412   -1.5029   -1.4448 C   0  0  0  0  0  0  0  0  0  0  0  0
   -6.7467   -1.1350    0.6782 C   0  0  0  0  0  0  0  0  0  0  0  0
   -0.9900    1.4517    0.2546 C   0  0  0  0  0  0  0  0  0  0  0  0
   -1.2093    1.9202   -0.8617 O   0  0  0  0  0  0  0  0  0  0  0  0
    0.2078    0.8553    0.6056 N   0  0  0  0  0  0  0  0  0  0  0  0
    1.2113    0.5896   -0.4083 C   0  0  0  0  0  0  0  0  0  0  0  0
    2.5846    0.3498    0.2009 C   0  0  0  0  0  0  0  0  0  0  0  0
    2.7037   -0.9529    0.9889 C   0  0  0  0  0  0  0  0  0  0  0  0
    4.2129   -1.1764    1.0484 C   0  0  0  0  0  0  0  0  0  0  0  0
    4.6987   -0.6187   -0.2118 N   0  0  0  0  0  0  0  0  0  0  0  0
    5.9847   -0.7636   -0.6767 C   0  0  0  0  0  0  0  0  0  0  0  0
    6.3706   -0.2904   -1.9459 C   0  0  0  0  0  0  0  0  0  0  0  0
    7.6782   -0.4323   -2.4294 C   0  0  0  0  0  0  0  0  0  0  0  0
    8.6310   -1.0580   -1.6430 C   0  0  0  0  0  0  0  0  0  0  0  0
    9.8827   -1.1941   -2.1012 F   0  0  0  0  0  0  0  0  0  0  0  0
    8.2835   -1.5389   -0.3921 C   0  0  0  0  0  0  0  0  0  0  0  0
    9.2000   -2.1450    0.3760 F   0  0  0  0  0  0  0  0  0  0  0  0
    6.9802   -1.3966    0.0855 C   0  0  0  0  0  0  0  0  0  0  0  0
    3.6731    0.1926   -0.8680 C   0  0  0  0  0  0  0  0  0  0  0  0
   -2.4218    2.9075    3.0559 H   0  0  0  0  0  0  0  0  0  0  0  0
   -1.7291    3.7060    1.6372 H   0  0  0  0  0  0  0  0  0  0  0  0
   -0.6950    2.7291    2.6871 H   0  0  0  0  0  0  0  0  0  0  0  0
   -1.9353    0.6661    2.0369 H   0  0  0  0  0  0  0  0  0  0  0  0
   -3.4729    2.4015    0.1679 H   0  0  0  0  0  0  0  0  0  0  0  0
   -4.9725    1.2211   -1.1915 H   0  0  0  0  0  0  0  0  0  0  0  0
   -5.8948    1.4933    0.2911 H   0  0  0  0  0  0  0  0  0  0  0  0
   -8.0661   -0.7731   -1.6998 H   0  0  0  0  0  0  0  0  0  0  0  0
   -7.9821    0.7767   -0.8518 H   0  0  0  0  0  0  0  0  0  0  0  0
   -7.0602    0.5321   -2.3426 H   0  0  0  0  0  0  0  0  0  0  0  0
   -4.6235   -1.9747   -0.8926 H   0  0  0  0  0  0  0  0  0  0  0  0
   -5.0154   -1.0398   -2.3418 H   0  0  0  0  0  0  0  0  0  0  0  0
   -6.1118   -2.3058   -1.7733 H   0  0  0  0  0  0  0  0  0  0  0  0
   -5.9578   -1.6003    1.2759 H   0  0  0  0  0  0  0  0  0  0  0  0
   -7.4661   -1.9233    0.4280 H   0  0  0  0  0  0  0  0  0  0  0  0
   -7.2626   -0.4068    1.3140 H   0  0  0  0  0  0  0  0  0  0  0  0
    0.1719    0.2274    1.4001 H   0  0  0  0  0  0  0  0  0  0  0  0
    1.2516    1.4456   -1.0926 H   0  0  0  0  0  0  0  0  0  0  0  0
    0.8710   -0.2771   -0.9876 H   0  0  0  0  0  0  0  0  0  0  0  0
    2.8500    1.1867    0.8622 H   0  0  0  0  0  0  0  0  0  0  0  0
    2.2589   -0.8922    1.9865 H   0  0  0  0  0  0  0  0  0  0  0  0
    2.2241   -1.7791    0.4498 H   0  0  0  0  0  0  0  0  0  0  0  0
    4.6473   -0.6327    1.8952 H   0  0  0  0  0  0  0  0  0  0  0  0
    4.4338   -2.2442    1.1497 H   0  0  0  0  0  0  0  0  0  0  0  0
    5.6477    0.1955   -2.5961 H   0  0  0  0  0  0  0  0  0  0  0  0
    7.9487   -0.0598   -3.4122 H   0  0  0  0  0  0  0  0  0  0  0  0
    6.7698   -1.7879    1.0752 H   0  0  0  0  0  0  0  0  0  0  0  0
    4.0472    1.1789   -1.1647 H   0  0  0  0  0  0  0  0  0  0  0  0
    3.2962   -0.3318   -1.7539 H   0  0  0  0  0  0  0  0  0  0  0  0
  1  2  1  0
  2  3  1  0
  3  4  1  0
  4  5  2  0
  4  6  1  0
  6  7  1  0
  7  8  1  0
  7  9  1  0
  7 10  1  0
  2 11  1  0
 11 12  2  0
 11 13  1  0
 13 14  1  0
 14 15  1  0
 15 16  1  0
 16 17  1  0
 17 18  1  0
 18 19  1  0
 19 20  1  0
 20 21  2  0
 21 22  1  0
 22 23  1  0
 22 24  2  0
 24 25  1  0
 24 26  1  0
 18 27  1  0
 27 15  1  0
 26 19  2  0
  1 28  1  0
  1 29  1  0
  1 30  1  0
  2 31  1  0
  3 32  1  0
  6 33  1  0
  6 34  1  0
  8 35  1  0
  8 36  1  0
  8 37  1  0
  9 38  1  0
  9 39  1  0
  9 40  1  0
 10 41  1  0
 10 42  1  0
 10 43  1  0
 13 44  1  0
 14 45  1  0
 14 46  1  0
 15 47  1  0
 16 48  1  0
 16 49  1  0
 17 50  1  0
 17 51  1  0
 20 52  1  0
 21 53  1  0
 26 54  1  0
 27 55  1  0
 27 56  1  0
M  END
$$$$
OCNT-2313241
     RDKit          3D

 40 42  0  0  0  0  0  0  0  0999 V2000
   -3.4243    1.2056    2.9270 C   0  0  0  0  0  0  0  0  0  0  0  0
   -2.9501    0.6497    1.7056 O   0  0  0  0  0  0  0  0  0  0  0  0
   -3.8439   -0.0947    0.9679 C   0  0  0  0  0  0  0  0  0  0  0  0
   -5.1633   -0.3618    1.3437 C   0  0  0  0  0  0  0  0  0  0  0  0
   -5.9753   -1.1341    0.5130 C   0  0  0  0  0  0  0  0  0  0  0  0
   -7.6003   -1.4624    0.9779 Cl  0  0  0  0  0  0  0  0  0  0  0  0
   -5.4861   -1.6438   -0.6860 C   0  0  0  0  0  0  0  0  0  0  0  0
   -4.1684   -1.3810   -1.0674 C   0  0  0  0  0  0  0  0  0  0  0  0
   -3.3418   -0.6064   -0.2504 C   0  0  0  0  0  0  0  0  0  0  0  0
   -1.9988   -0.2998   -0.5643 N   0  0  0  0  0  0  0  0  0  0  0  0
   -1.2960   -0.6199   -1.7070 C   0  0  0  0  0  0  0  0  0  0  0  0
   -1.7346   -1.1874   -2.7004 O   0  0  0  0  0  0  0  0  0  0  0  0
    0.1287   -0.1810   -1.7129 C   0  0  0  0  0  0  0  0  0  0  0  0
    0.7041    0.1963   -2.9292 C   0  0  0  0  0  0  0  0  0  0  0  0
    2.0338    0.6080   -2.9694 C   0  0  0  0  0  0  0  0  0  0  0  0
    2.7963    0.6307   -1.7978 C   0  0  0  0  0  0  0  0  0  0  0  0
    2.2471    0.2401   -0.5708 C   0  0  0  0  0  0  0  0  0  0  0  0
    2.9765    0.1972    0.6301 N   0  0  0  0  0  0  0  0  0  0  0  0
    4.3461    0.2630    0.8903 C   0  0  0  0  0  0  0  0  0  0  0  0
    5.3236   -0.2915    0.0629 C   0  0  0  0  0  0  0  0  0  0  0  0
    6.6557   -0.2380    0.3256 N   0  0  0  0  0  0  0  0  0  0  0  0
    6.9831    0.3818    1.4771 C   0  0  0  0  0  0  0  0  0  0  0  0
    6.0264    0.9152    2.3213 C   0  0  0  0  0  0  0  0  0  0  0  0
    4.6999    0.8621    2.0504 N   0  0  0  0  0  0  0  0  0  0  0  0
    0.9049   -0.1712   -0.5441 C   0  0  0  0  0  0  0  0  0  0  0  0
   -4.2497    1.9028    2.7494 H   0  0  0  0  0  0  0  0  0  0  0  0
   -2.6024    1.7710    3.3767 H   0  0  0  0  0  0  0  0  0  0  0  0
   -3.7120    0.4191    3.6323 H   0  0  0  0  0  0  0  0  0  0  0  0
   -5.5818    0.0140    2.2704 H   0  0  0  0  0  0  0  0  0  0  0  0
   -6.1195   -2.2471   -1.3312 H   0  0  0  0  0  0  0  0  0  0  0  0
   -3.8152   -1.7967   -2.0060 H   0  0  0  0  0  0  0  0  0  0  0  0
   -1.5512    0.2848    0.1339 H   0  0  0  0  0  0  0  0  0  0  0  0
    0.1159    0.1734   -3.8447 H   0  0  0  0  0  0  0  0  0  0  0  0
    2.4787    0.9138   -3.9134 H   0  0  0  0  0  0  0  0  0  0  0  0
    3.8208    0.9866   -1.8656 H   0  0  0  0  0  0  0  0  0  0  0  0
    2.4878    0.6165    1.4160 H   0  0  0  0  0  0  0  0  0  0  0  0
    5.0599   -0.8285   -0.8414 H   0  0  0  0  0  0  0  0  0  0  0  0
    8.0405    0.4349    1.7087 H   0  0  0  0  0  0  0  0  0  0  0  0
    6.3013    1.4049    3.2486 H   0  0  0  0  0  0  0  0  0  0  0  0
    0.4836   -0.5262    0.3934 H   0  0  0  0  0  0  0  0  0  0  0  0
  1  2  1  0
  2  3  1  0
  3  4  1  0
  4  5  2  0
  5  6  1  0
  5  7  1  0
  7  8  2  0
  8  9  1  0
  9 10  1  0
 10 11  1  0
 11 12  2  0
 11 13  1  0
 13 14  1  0
 14 15  2  0
 15 16  1  0
 16 17  2  0
 17 18  1  0
 18 19  1  0
 19 20  2  0
 20 21  1  0
 21 22  2  0
 22 23  1  0
 23 24  2  0
 17 25  1  0
  9  3  2  0
 25 13  2  0
 24 19  1  0
  1 26  1  0
  1 27  1  0
  1 28  1  0
  4 29  1  0
  7 30  1  0
  8 31  1  0
 10 32  1  0
 14 33  1  0
 15 34  1  0
 16 35  1  0
 18 36  1  0
 20 37  1  0
 22 38  1  0
 23 39  1  0
 25 40  1  0
M  END
$$$$
OCNT-2313250
     RDKit          3D

 44 47  0  0  0  0  0  0  0  0999 V2000
   -1.1671   -1.2805    0.6632 O   0  0  0  0  0  0  0  0  0  0  0  0
   -1.4272   -0.0841    0.6701 C   0  0  0  0  0  0  0  0  0  0  0  0
   -2.8521    0.4406    0.5420 C   0  0  0  0  0  0  0  0  0  0  0  0
   -3.8964   -0.6719    0.5162 C   0  0  0  0  0  0  0  0  0  0  0  0
   -3.9456   -1.4771   -0.7946 C   0  0  0  0  0  0  0  0  0  0  0  0
   -5.4292   -1.4068   -1.1591 C   0  0  0  0  0  0  0  0  0  0  0  0
   -5.7790   -0.0185   -1.6927 C   0  0  0  0  0  0  0  0  0  0  0  0
   -5.7551    0.8271   -0.4186 C   0  0  0  0  0  0  0  0  0  0  0  0
   -5.3526   -0.1994    0.6391 C   0  0  0  0  0  0  0  0  0  0  0  0
   -6.0499   -1.3704    0.1470 O   0  0  0  0  0  0  0  0  0  0  0  0
   -0.5143    0.9552    0.7723 N   0  0  0  0  0  0  0  0  0  0  0  0
    0.8871    0.8573    0.9051 C   0  0  0  0  0  0  0  0  0  0  0  0
    1.5833   -0.3519    0.9724 C   0  0  0  0  0  0  0  0  0  0  0  0
    2.9766   -0.3665    1.1055 C   0  0  0  0  0  0  0  0  0  0  0  0
    3.6892    0.8336    1.1558 C   0  0  0  0  0  0  0  0  0  0  0  0
    5.0548    0.8388    1.3284 O   0  0  0  0  0  0  0  0  0  0  0  0
    5.8083    0.1353    0.4157 C   0  0  0  0  0  0  0  0  0  0  0  0
    6.8891   -0.5806    0.9177 C   0  0  0  0  0  0  0  0  0  0  0  0
    7.6806   -1.2726    0.0192 C   0  0  0  0  0  0  0  0  0  0  0  0
    7.4689   -1.2812   -1.3149 N   0  0  0  0  0  0  0  0  0  0  0  0
    6.4255   -0.5550   -1.7721 C   0  0  0  0  0  0  0  0  0  0  0  0
    5.5754    0.1706   -0.9562 C   0  0  0  0  0  0  0  0  0  0  0  0
    2.9989    2.0459    1.1113 C   0  0  0  0  0  0  0  0  0  0  0  0
    3.8297    3.5568    1.1975 Cl  0  0  0  0  0  0  0  0  0  0  0  0
    1.6065    2.0575    0.9796 C   0  0  0  0  0  0  0  0  0  0  0  0
   -3.0451    1.0963    1.3999 H   0  0  0  0  0  0  0  0  0  0  0  0
   -2.9013    1.0460   -0.3703 H   0  0  0  0  0  0  0  0  0  0  0  0
   -3.6982   -1.3786    1.3343 H   0  0  0  0  0  0  0  0  0  0  0  0
   -3.6553   -2.5146   -0.5917 H   0  0  0  0  0  0  0  0  0  0  0  0
   -3.2980   -1.0906   -1.5875 H   0  0  0  0  0  0  0  0  0  0  0  0
   -5.7883   -2.2354   -1.7732 H   0  0  0  0  0  0  0  0  0  0  0  0
   -5.0796    0.3353   -2.4558 H   0  0  0  0  0  0  0  0  0  0  0  0
   -6.7885   -0.0100   -2.1186 H   0  0  0  0  0  0  0  0  0  0  0  0
   -5.0884    1.6901   -0.4823 H   0  0  0  0  0  0  0  0  0  0  0  0
   -6.7664    1.1995   -0.2171 H   0  0  0  0  0  0  0  0  0  0  0  0
   -5.6573    0.0582    1.6564 H   0  0  0  0  0  0  0  0  0  0  0  0
   -0.8941    1.8937    0.7492 H   0  0  0  0  0  0  0  0  0  0  0  0
    1.0727   -1.3099    0.9330 H   0  0  0  0  0  0  0  0  0  0  0  0
    3.4935   -1.3206    1.1755 H   0  0  0  0  0  0  0  0  0  0  0  0
    7.1055   -0.6008    1.9792 H   0  0  0  0  0  0  0  0  0  0  0  0
    8.5336   -1.8545    0.3564 H   0  0  0  0  0  0  0  0  0  0  0  0
    6.2903   -0.5686   -2.8499 H   0  0  0  0  0  0  0  0  0  0  0  0
    4.7682    0.7488   -1.3885 H   0  0  0  0  0  0  0  0  0  0  0  0
    1.0911    3.0134    0.9383 H   0  0  0  0  0  0  0  0  0  0  0  0
  1  2  2  0
  2  3  1  0
  3  4  1  0
  4  5  1  0
  5  6  1  0
  6  7  1  0
  7  8  1  0
  8  9  1  0
  9 10  1  0
  2 11  1  0
 11 12  1  0
 12 13  1  0
 13 14  2  0
 14 15  1  0
 15 16  1  0
 16 17  1  0
 17 18  2  0
 18 19  1  0
 19 20  2  0
 20 21  1  0
 21 22  2  0
 15 23  2  0
 23 24  1  0
 23 25  1  0
  9  4  1  0
 25 12  2  0
 10  6  1  0
 22 17  1  0
  3 26  1  0
  3 27  1  0
  4 28  1  0
  5 29  1  0
  5 30  1  0
  6 31  1  0
  7 32  1  0
  7 33  1  0
  8 34  1  0
  8 35  1  0
  9 36  1  0
 11 37  1  0
 13 38  1  0
 14 39  1  0
 18 40  1  0
 19 41  1  0
 21 42  1  0
 22 43  1  0
 25 44  1  0
M  END
$$$$
OCNT-2313251
     RDKit          3D

 40 43  0  0  0  0  0  0  0  0999 V2000
   -0.5402    2.7334    1.5672 O   0  0  0  0  0  0  0  0  0  0  0  0
   -1.0432    1.6216    1.6636 C   0  0  0  0  0  0  0  0  0  0  0  0
   -0.4167    0.4290    1.3437 N   0  0  0  0  0  0  0  0  0  0  0  0
    0.8586    0.2505    0.7688 C   0  0  0  0  0  0  0  0  0  0  0  0
    1.2786   -1.0664    0.5499 C   0  0  0  0  0  0  0  0  0  0  0  0
    2.5273   -1.3407   -0.0249 C   0  0  0  0  0  0  0  0  0  0  0  0
    3.3829   -0.2932   -0.3954 C   0  0  0  0  0  0  0  0  0  0  0  0
    4.6516   -0.5634   -0.9810 N   0  0  0  0  0  0  0  0  0  0  0  0
    5.2100   -1.8009   -1.2532 C   0  0  0  0  0  0  0  0  0  0  0  0
    6.4441   -1.5814   -1.8176 C   0  0  0  0  0  0  0  0  0  0  0  0
    6.5648   -0.1885   -1.8561 C   0  0  0  0  0  0  0  0  0  0  0  0
    5.4954    0.4279   -1.3576 N   0  0  0  0  0  0  0  0  0  0  0  0
    2.9549    1.0205   -0.1750 C   0  0  0  0  0  0  0  0  0  0  0  0
    3.7079    2.0807   -0.5007 F   0  0  0  0  0  0  0  0  0  0  0  0
    1.7078    1.2903    0.3998 C   0  0  0  0  0  0  0  0  0  0  0  0
   -2.3671    1.4438    2.2057 C   0  0  0  0  0  0  0  0  0  0  0  0
   -2.8525    2.0006    3.3765 C   0  0  0  0  0  0  0  0  0  0  0  0
   -4.0948    1.3948    3.5819 C   0  0  0  0  0  0  0  0  0  0  0  0
   -4.4027    0.5397    2.6094 N   0  0  0  0  0  0  0  0  0  0  0  0
   -3.4154    0.6983    1.6828 N   0  0  0  0  0  0  0  0  0  0  0  0
   -3.5701    0.1131    0.3897 C   0  0  0  0  0  0  0  0  0  0  0  0
   -2.8039    0.5271   -0.7081 C   0  0  0  0  0  0  0  0  0  0  0  0
   -2.9806   -0.0773   -1.9567 C   0  0  0  0  0  0  0  0  0  0  0  0
   -3.9296   -1.0835   -2.1234 C   0  0  0  0  0  0  0  0  0  0  0  0
   -4.7162   -1.4811   -1.0455 C   0  0  0  0  0  0  0  0  0  0  0  0
   -4.5446   -0.8816    0.2043 C   0  0  0  0  0  0  0  0  0  0  0  0
   -0.9259   -0.4198    1.5584 H   0  0  0  0  0  0  0  0  0  0  0  0
    0.6402   -1.9050    0.8213 H   0  0  0  0  0  0  0  0  0  0  0  0
    2.7922   -2.3839   -0.1675 H   0  0  0  0  0  0  0  0  0  0  0  0
    4.7027   -2.7257   -1.0303 H   0  0  0  0  0  0  0  0  0  0  0  0
    7.1534   -2.3246   -2.1522 H   0  0  0  0  0  0  0  0  0  0  0  0
    7.3875    0.4100   -2.2265 H   0  0  0  0  0  0  0  0  0  0  0  0
    1.4464    2.3341    0.5375 H   0  0  0  0  0  0  0  0  0  0  0  0
   -2.3309    2.6936    4.0231 H   0  0  0  0  0  0  0  0  0  0  0  0
   -4.7797    1.5183    4.4116 H   0  0  0  0  0  0  0  0  0  0  0  0
   -2.0923    1.3456   -0.6496 H   0  0  0  0  0  0  0  0  0  0  0  0
   -2.3862    0.2523   -2.8062 H   0  0  0  0  0  0  0  0  0  0  0  0
   -4.0682   -1.5452   -3.0979 H   0  0  0  0  0  0  0  0  0  0  0  0
   -5.4695   -2.2540   -1.1765 H   0  0  0  0  0  0  0  0  0  0  0  0
   -5.1758   -1.2092    1.0292 H   0  0  0  0  0  0  0  0  0  0  0  0
  1  2  2  0
  2  3  1  0
  3  4  1  0
  4  5  1  0
  5  6  2  0
  6  7  1  0
  7  8  1  0
  8  9  1  0
  9 10  2  0
 10 11  1  0
 11 12  2  0
  7 13  2  0
 13 14  1  0
 13 15  1  0
  2 16  1  0
 16 17  2  0
 17 18  1  0
 18 19  2  0
 19 20  1  0
 20 21  1  0
 21 22  2  0
 22 23  1  0
 23 24  2  0
 24 25  1  0
 25 26  2  0
 15  4  2  0
 20 16  1  0
 26 21  1  0
 12  8  1  0
  3 27  1  0
  5 28  1  0
  6 29  1  0
  9 30  1  0
 10 31  1  0
 11 32  1  0
 15 33  1  0
 17 34  1  0
 18 35  1  0
 22 36  1  0
 23 37  1  0
 24 38  1  0
 25 39  1  0
 26 40  1  0
M  END
$$$$
OCNT-2313255
     RDKit          3D

 40 43  0  0  0  0  0  0  0  0999 V2000
    7.2306   -0.1713   -0.6170 C   0  0  0  0  0  0  0  0  0  0  0  0
    5.7924   -0.1473   -0.2725 C   0  0  0  0  0  0  0  0  0  0  0  0
    4.7321    0.2664   -1.0513 C   0  0  0  0  0  0  0  0  0  0  0  0
    3.6059    0.0997   -0.2952 N   0  0  0  0  0  0  0  0  0  0  0  0
    2.2534    0.3974   -0.6970 C   0  0  0  0  0  0  0  0  0  0  0  0
    1.4938    1.3478    0.2333 C   0  0  0  0  0  0  0  0  0  0  0  0
    0.0417    1.1222   -0.1735 C   0  0  0  0  0  0  0  0  0  0  0  0
   -0.0079   -0.2589   -0.6388 N   0  0  0  0  0  0  0  0  0  0  0  0
   -1.1203   -1.0911   -0.6946 C   0  0  0  0  0  0  0  0  0  0  0  0
   -0.9687   -2.3083   -0.8255 O   0  0  0  0  0  0  0  0  0  0  0  0
   -2.4443   -0.5094   -0.5502 C   0  0  0  0  0  0  0  0  0  0  0  0
   -3.4792   -0.9585    0.2499 C   0  0  0  0  0  0  0  0  0  0  0  0
   -3.3747   -2.0286    1.0792 N   0  0  0  0  0  0  0  0  0  0  0  0
   -4.6692   -0.1673    0.1266 C   0  0  0  0  0  0  0  0  0  0  0  0
   -5.9309   -0.2170    0.7607 C   0  0  0  0  0  0  0  0  0  0  0  0
   -6.8977    0.7188    0.4002 C   0  0  0  0  0  0  0  0  0  0  0  0
   -6.5826    1.6575   -0.5662 C   0  0  0  0  0  0  0  0  0  0  0  0
   -5.4005    1.7544   -1.2069 N   0  0  0  0  0  0  0  0  0  0  0  0
   -4.4928    0.8294   -0.8273 C   0  0  0  0  0  0  0  0  0  0  0  0
   -2.9507    0.7920   -1.5426 S   0  0  0  0  0  0  0  0  0  0  0  0
    1.3344   -0.8194   -0.7372 C   0  0  0  0  0  0  0  0  0  0  0  0
    3.8636   -0.3922    0.9304 N   0  0  0  0  0  0  0  0  0  0  0  0
    5.1895   -0.5418    0.9421 C   0  0  0  0  0  0  0  0  0  0  0  0
    7.6856   -1.1191   -0.3118 H   0  0  0  0  0  0  0  0  0  0  0  0
    7.3820   -0.0566   -1.6952 H   0  0  0  0  0  0  0  0  0  0  0  0
    7.7570    0.6432   -0.1095 H   0  0  0  0  0  0  0  0  0  0  0  0
    4.6907    0.6552   -2.0595 H   0  0  0  0  0  0  0  0  0  0  0  0
    2.2956    0.8490   -1.6978 H   0  0  0  0  0  0  0  0  0  0  0  0
    1.6297    1.0700    1.2857 H   0  0  0  0  0  0  0  0  0  0  0  0
    1.8025    2.3917    0.1212 H   0  0  0  0  0  0  0  0  0  0  0  0
   -0.2168    1.7730   -1.0148 H   0  0  0  0  0  0  0  0  0  0  0  0
   -0.6533    1.2924    0.6535 H   0  0  0  0  0  0  0  0  0  0  0  0
   -2.6233   -2.7018    0.9065 H   0  0  0  0  0  0  0  0  0  0  0  0
   -4.2129   -2.4955    1.4134 H   0  0  0  0  0  0  0  0  0  0  0  0
   -6.1424   -0.9639    1.5190 H   0  0  0  0  0  0  0  0  0  0  0  0
   -7.8769    0.7139    0.8667 H   0  0  0  0  0  0  0  0  0  0  0  0
   -7.3192    2.3996   -0.8666 H   0  0  0  0  0  0  0  0  0  0  0  0
    1.4367   -1.3972   -1.6617 H   0  0  0  0  0  0  0  0  0  0  0  0
    1.4831   -1.4965    0.1124 H   0  0  0  0  0  0  0  0  0  0  0  0
    5.6641   -0.9319    1.8337 H   0  0  0  0  0  0  0  0  0  0  0  0
  1  2  1  0
  2  3  2  0
  3  4  1  0
  4  5  1  0
  5  6  1  0
  6  7  1  0
  7  8  1  0
  8  9  1  0
  9 10  2  0
  9 11  1  0
 11 12  2  0
 12 13  1  0
 12 14  1  0
 14 15  1  0
 15 16  2  0
 16 17  1  0
 17 18  2  0
 18 19  1  0
 19 20  1  0
  8 21  1  0
  4 22  1  0
 22 23  2  0
 23  2  1  0
 21  5  1  0
 20 11  1  0
 19 14  2  0
  1 24  1  0
  1 25  1  0
  1 26  1  0
  3 27  1  0
  5 28  1  0
  6 29  1  0
  6 30  1  0
  7 31  1  0
  7 32  1  0
 13 33  1  0
 13 34  1  0
 15 35  1  0
 16 36  1  0
 17 37  1  0
 21 38  1  0
 21 39  1  0
 23 40  1  0
M  END
$$$$
OCNT-2313260
     RDKit          3D

 45 48  0  0  0  0  0  0  0  0999 V2000
   -0.8777   -2.7757    2.3028 O   0  0  0  0  0  0  0  0  0  0  0  0
   -0.3072   -2.3922    1.2857 C   0  0  0  0  0  0  0  0  0  0  0  0
   -0.5637   -1.1677    0.7165 N   0  0  0  0  0  0  0  0  0  0  0  0
   -1.5165   -0.2337    1.2904 C   0  0  0  0  0  0  0  0  0  0  0  0
   -2.9779   -0.6598    1.0745 C   0  0  0  0  0  0  0  0  0  0  0  0
   -3.9208    0.3762    1.5077 N   0  0  0  0  0  0  0  0  0  0  0  0
   -4.1361    1.4210    0.5919 C   0  0  0  0  0  0  0  0  0  0  0  0
   -5.0624    2.4253    0.8987 C   0  0  0  0  0  0  0  0  0  0  0  0
   -5.3319    3.4848    0.0935 N   0  0  0  0  0  0  0  0  0  0  0  0
   -4.6154    3.5226   -1.0473 C   0  0  0  0  0  0  0  0  0  0  0  0
   -3.6826    2.5512   -1.3614 C   0  0  0  0  0  0  0  0  0  0  0  0
   -3.4252    1.4938   -0.5542 N   0  0  0  0  0  0  0  0  0  0  0  0
    0.6345   -3.2378    0.5676 C   0  0  0  0  0  0  0  0  0  0  0  0
    0.6482   -4.6183    0.6584 C   0  0  0  0  0  0  0  0  0  0  0  0
    1.6293   -5.0541   -0.1716 N   0  0  0  0  0  0  0  0  0  0  0  0
    2.2683   -4.0651   -0.8071 N   0  0  0  0  0  0  0  0  0  0  0  0
    1.7109   -2.9390   -0.3285 C   0  0  0  0  0  0  0  0  0  0  0  0
    2.2395   -1.6409   -0.7426 C   0  0  0  0  0  0  0  0  0  0  0  0
    2.4498   -1.3708   -2.1030 C   0  0  0  0  0  0  0  0  0  0  0  0
    2.9341   -0.1256   -2.5118 C   0  0  0  0  0  0  0  0  0  0  0  0
    3.2156    0.8534   -1.5625 C   0  0  0  0  0  0  0  0  0  0  0  0
    3.6622    2.0605   -2.0355 O   0  0  0  0  0  0  0  0  0  0  0  0
    3.6067    3.0723   -1.0232 C   0  0  0  0  0  0  0  0  0  0  0  0
    4.1577    2.5483    0.2925 C   0  0  0  0  0  0  0  0  0  0  0  0
    3.3445    1.4788    0.7886 O   0  0  0  0  0  0  0  0  0  0  0  0
    3.0496    0.5766   -0.2018 C   0  0  0  0  0  0  0  0  0  0  0  0
    2.5545   -0.6610    0.2082 C   0  0  0  0  0  0  0  0  0  0  0  0
   -0.2022   -0.9566   -0.2037 H   0  0  0  0  0  0  0  0  0  0  0  0
   -1.3129   -0.1459    2.3642 H   0  0  0  0  0  0  0  0  0  0  0  0
   -1.3067    0.7406    0.8386 H   0  0  0  0  0  0  0  0  0  0  0  0
   -3.1578   -0.9604    0.0340 H   0  0  0  0  0  0  0  0  0  0  0  0
   -3.1737   -1.5563    1.6750 H   0  0  0  0  0  0  0  0  0  0  0  0
   -4.8185   -0.0285    1.7625 H   0  0  0  0  0  0  0  0  0  0  0  0
   -5.6196    2.4015    1.8292 H   0  0  0  0  0  0  0  0  0  0  0  0
   -4.8085    4.3607   -1.7066 H   0  0  0  0  0  0  0  0  0  0  0  0
   -3.1088    2.5954   -2.2800 H   0  0  0  0  0  0  0  0  0  0  0  0
    0.0377   -5.3029    1.2309 H   0  0  0  0  0  0  0  0  0  0  0  0
    1.9158   -6.0098   -0.3584 H   0  0  0  0  0  0  0  0  0  0  0  0
    2.2361   -2.1336   -2.8496 H   0  0  0  0  0  0  0  0  0  0  0  0
    3.0860    0.0794   -3.5678 H   0  0  0  0  0  0  0  0  0  0  0  0
    2.5660    3.4035   -0.9190 H   0  0  0  0  0  0  0  0  0  0  0  0
    4.2021    3.9222   -1.3712 H   0  0  0  0  0  0  0  0  0  0  0  0
    5.1861    2.1826    0.1811 H   0  0  0  0  0  0  0  0  0  0  0  0
    4.1575    3.3420    1.0461 H   0  0  0  0  0  0  0  0  0  0  0  0
    2.4333   -0.8569    1.2708 H   0  0  0  0  0  0  0  0  0  0  0  0
  1  2  2  0
  2  3  1  0
  3  4  1  0
  4  5  1  0
  5  6  1  0
  6  7  1  0
  7  8  2  0
  8  9  1  0
  9 10  2  0
 10 11  1  0
 11 12  2  0
  2 13  1  0
 13 14  2  0
 14 15  1  0
 15 16  1  0
 16 17  2  0
 17 18  1  0
 18 19  1  0
 19 20  2  0
 20 21  1  0
 21 22  1  0
 22 23  1  0
 23 24  1  0
 24 25  1  0
 25 26  1  0
 26 27  1  0
 12  7  1  0
 17 13  1  0
 27 18  2  0
 26 21  2  0
  3 28  1  0
  4 29  1  0
  4 30  1  0
  5 31  1  0
  5 32  1  0
  6 33  1  0
  8 34  1  0
 10 35  1  0
 11 36  1  0
 14 37  1  0
 15 38  1  0
 19 39  1  0
 20 40  1  0
 23 41  1  0
 23 42  1  0
 24 43  1  0
 24 44  1  0
 27 45  1  0
M  END
$$$$
OCNT-2313271
     RDKit          3D

 47 48  0  0  0  0  0  0  0  0999 V2000
    5.0107    1.7907    0.0061 C   0  0  0  0  0  0  0  0  0  0  0  0
    4.7271    0.2900    0.0832 C   0  0  0  0  0  0  0  0  0  0  0  0
    5.9009   -0.4877   -0.5235 C   0  0  0  0  0  0  0  0  0  0  0  0
    3.3947   -0.1650   -0.5365 C   0  0  0  0  0  0  0  0  0  0  0  0
    2.8951   -1.4687   -0.0251 C   0  0  0  0  0  0  0  0  0  0  0  0
    3.1418   -2.5184   -0.6917 O   0  0  0  0  0  0  0  0  0  0  0  0
    2.2381   -1.4265    1.0662 O   0  0  0  0  0  0  0  0  0  0  0  0
    3.1402    0.1436   -2.0069 C   0  0  0  0  0  0  0  0  0  0  0  0
    2.3248    0.8634   -0.9614 C   0  0  0  0  0  0  0  0  0  0  0  0
    0.8478    0.6417   -0.9577 C   0  0  0  0  0  0  0  0  0  0  0  0
    0.1940    0.9840   -1.9364 O   0  0  0  0  0  0  0  0  0  0  0  0
    0.3199    0.1385    0.2051 N   0  0  0  0  0  0  0  0  0  0  0  0
   -1.0693   -0.3384    0.3537 C   0  0  0  0  0  0  0  0  0  0  0  0
   -1.2169   -0.8452    1.8036 C   0  0  0  0  0  0  0  0  0  0  0  0
   -1.3078   -1.5229   -0.5998 C   0  0  0  0  0  0  0  0  0  0  0  0
   -2.0682    0.8314    0.0885 C   0  0  0  0  0  0  0  0  0  0  0  0
   -3.5402    0.5564    0.3277 C   0  0  0  0  0  0  0  0  0  0  0  0
   -4.1287    0.8481    1.5658 C   0  0  0  0  0  0  0  0  0  0  0  0
   -5.4858    0.5977    1.7829 C   0  0  0  0  0  0  0  0  0  0  0  0
   -6.2712    0.0567    0.7607 C   0  0  0  0  0  0  0  0  0  0  0  0
   -7.6646   -0.1967    0.9820 C   0  0  0  0  0  0  0  0  0  0  0  0
   -8.7943   -0.3963    1.1621 N   0  0  0  0  0  0  0  0  0  0  0  0
   -5.6934   -0.2314   -0.4789 C   0  0  0  0  0  0  0  0  0  0  0  0
   -4.3362    0.0198   -0.6936 C   0  0  0  0  0  0  0  0  0  0  0  0
    4.2476    2.3628    0.5438 H   0  0  0  0  0  0  0  0  0  0  0  0
    5.0443    2.1490   -1.0276 H   0  0  0  0  0  0  0  0  0  0  0  0
    5.9747    2.0262    0.4707 H   0  0  0  0  0  0  0  0  0  0  0  0
    4.6881    0.0399    1.1521 H   0  0  0  0  0  0  0  0  0  0  0  0
    6.0051   -0.2831   -1.5943 H   0  0  0  0  0  0  0  0  0  0  0  0
    5.7659   -1.5673   -0.4034 H   0  0  0  0  0  0  0  0  0  0  0  0
    6.8427   -0.2163   -0.0345 H   0  0  0  0  0  0  0  0  0  0  0  0
    3.8703    0.7152   -2.5639 H   0  0  0  0  0  0  0  0  0  0  0  0
    2.6557   -0.6269   -2.6009 H   0  0  0  0  0  0  0  0  0  0  0  0
    2.5486    1.9157   -0.8411 H   0  0  0  0  0  0  0  0  0  0  0  0
    1.0135   -0.3661    0.7814 H   0  0  0  0  0  0  0  0  0  0  0  0
   -0.4730   -1.6185    2.0297 H   0  0  0  0  0  0  0  0  0  0  0  0
   -2.2012   -1.2877    1.9871 H   0  0  0  0  0  0  0  0  0  0  0  0
   -1.0648   -0.0318    2.5224 H   0  0  0  0  0  0  0  0  0  0  0  0
   -0.5272   -2.2839   -0.4808 H   0  0  0  0  0  0  0  0  0  0  0  0
   -1.2942   -1.2069   -1.6483 H   0  0  0  0  0  0  0  0  0  0  0  0
   -2.2695   -2.0104   -0.4099 H   0  0  0  0  0  0  0  0  0  0  0  0
   -1.9743    1.1897   -0.9436 H   0  0  0  0  0  0  0  0  0  0  0  0
   -1.7765    1.6949    0.7039 H   0  0  0  0  0  0  0  0  0  0  0  0
   -3.5274    1.2693    2.3695 H   0  0  0  0  0  0  0  0  0  0  0  0
   -5.9205    0.8278    2.7533 H   0  0  0  0  0  0  0  0  0  0  0  0
   -6.2899   -0.6515   -1.2858 H   0  0  0  0  0  0  0  0  0  0  0  0
   -3.8967   -0.2050   -1.6645 H   0  0  0  0  0  0  0  0  0  0  0  0
  1  2  1  0
  2  3  1  0
  2  4  1  0
  4  5  1  0
  5  6  2  0
  5  7  1  0
  4  8  1  0
  8  9  1  0
  9 10  1  0
 10 11  2  0
 10 12  1  0
 12 13  1  0
 13 14  1  0
 13 15  1  0
 13 16  1  0
 16 17  1  0
 17 18  1  0
 18 19  2  0
 19 20  1  0
 20 21  1  0
 21 22  3  0
 20 23  2  0
 23 24  1  0
  9  4  1  0
 24 17  2  0
  1 25  1  0
  1 26  1  0
  1 27  1  0
  2 28  1  0
  3 29  1  0
  3 30  1  0
  3 31  1  0
  8 32  1  0
  8 33  1  0
  9 34  1  0
 12 35  1  0
 14 36  1  0
 14 37  1  0
 14 38  1  0
 15 39  1  0
 15 40  1  0
 15 41  1  0
 16 42  1  0
 16 43  1  0
 18 44  1  0
 19 45  1  0
 23 46  1  0
 24 47  1  0
M  CHG  1   7  -1
M  END
$$$$
OCNT-2313274
     RDKit          3D

  0  0  0  0  0  0  0  0  0  0999 V3000
M  V30 BEGIN CTAB
M  V30 COUNTS 47 49 0 0 0
M  V30 BEGIN ATOM
M  V30 1 O -1.068035 1.741102 -0.982233 0
M  V30 2 C -0.003721 0.908115 -0.482939 0
M  V30 3 C -0.523191 0.015143 0.673413 0
M  V30 4 N -1.600279 -0.906449 0.271758 0
M  V30 5 C -2.937101 -0.284456 0.260790 0 CFG=2
M  V30 6 C -3.776682 -0.839254 1.418262 0
M  V30 7 C -5.187031 -0.247078 1.406178 0
M  V30 8 C -5.884435 -0.461503 0.063449 0
M  V30 9 C -5.046918 0.052395 -1.104387 0
M  V30 10 C -3.643571 -0.550143 -1.092437 0 CFG=1
M  V30 11 O -2.892278 -0.003911 -2.180083 0
M  V30 12 C 1.162950 1.812103 -0.048525 0
M  V30 13 C 2.459862 1.077216 0.174700 0
M  V30 14 C 2.914086 0.802916 1.468372 0
M  V30 15 C 4.115586 0.117806 1.665095 0
M  V30 16 C 4.889938 -0.304858 0.573189 0
M  V30 17 C 6.101936 -0.989764 0.755983 0
M  V30 18 C 6.861919 -1.400911 -0.340826 0
M  V30 19 C 6.419608 -1.133906 -1.632847 0
M  V30 20 C 5.216328 -0.455005 -1.831047 0
M  V30 21 C 4.440388 -0.033435 -0.738179 0
M  V30 22 C 3.228655 0.654008 -0.920370 0
M  V30 23 H -1.239745 2.424403 -0.307504 0
M  V30 24 H 0.306785 0.271073 -1.319377 0
M  V30 25 H 0.300465 -0.607812 1.038285 0
M  V30 26 H -0.852308 0.630372 1.519794 0
M  V30 27 H -1.393742 -1.247085 -0.673649 0
M  V30 28 H -2.859743 0.801973 0.393124 0
M  V30 29 H -3.843237 -1.933460 1.350984 0
M  V30 30 H -3.298510 -0.606273 2.377716 0
M  V30 31 H -5.783179 -0.700468 2.207917 0
M  V30 32 H -5.131998 0.828788 1.618613 0
M  V30 33 H -6.081259 -1.532622 -0.074001 0
M  V30 34 H -6.857323 0.043218 0.068516 0
M  V30 35 H -5.543717 -0.183462 -2.054188 0
M  V30 36 H -4.980527 1.148337 -1.068121 0
M  V30 37 H -3.717814 -1.629807 -1.270943 0
M  V30 38 H -2.311394 0.703977 -1.824312 0
M  V30 39 H 1.328419 2.583739 -0.812769 0
M  V30 40 H 0.883330 2.376933 0.851364 0
M  V30 41 H 2.339785 1.118057 2.337127 0
M  V30 42 H 4.446313 -0.081505 2.682214 0
M  V30 43 H 6.463716 -1.208039 1.758653 0
M  V30 44 H 7.798518 -1.929092 -0.184822 0
M  V30 45 H 7.010156 -1.452955 -2.488305 0
M  V30 46 H 4.887721 -0.255467 -2.848325 0
M  V30 47 H 2.881277 0.867046 -1.929647 0
M  V30 END ATOM
M  V30 BEGIN BOND
M  V30 1 1 1 2
M  V30 2 1 2 3
M  V30 3 1 3 4
M  V30 4 1 4 5
M  V30 5 1 5 6
M  V30 6 1 6 7
M  V30 7 1 7 8
M  V30 8 1 8 9
M  V30 9 1 9 10
M  V30 10 1 10 11
M  V30 11 1 2 12
M  V30 12 1 12 13
M  V30 13 1 13 14
M  V30 14 2 14 15
M  V30 15 1 15 16
M  V30 16 2 16 17
M  V30 17 1 17 18
M  V30 18 2 18 19
M  V30 19 1 19 20
M  V30 20 2 20 21
M  V30 21 1 21 22
M  V30 22 1 10 5
M  V30 23 2 22 13
M  V30 24 1 21 16
M  V30 25 1 1 23
M  V30 26 1 2 24
M  V30 27 1 3 25
M  V30 28 1 3 26
M  V30 29 1 4 27
M  V30 30 1 5 28 CFG=1
M  V30 31 1 6 29
M  V30 32 1 6 30
M  V30 33 1 7 31
M  V30 34 1 7 32
M  V30 35 1 8 33
M  V30 36 1 8 34
M  V30 37 1 9 35
M  V30 38 1 9 36
M  V30 39 1 10 37 CFG=3
M  V30 40 1 11 38
M  V30 41 1 12 39
M  V30 42 1 12 40
M  V30 43 1 14 41
M  V30 44 1 15 42
M  V30 45 1 17 43
M  V30 46 1 18 44
M  V30 47 1 19 45
M  V30 48 1 20 46
M  V30 49 1 22 47
M  V30 END BOND
M  V30 BEGIN COLLECTION
M  V30 MDLV30/STERAC1 ATOMS=(2 5 10)
M  V30 END COLLECTION
M  V30 END CTAB
M  END
>  <_CXSMILES_Data>  (729) 
|&1:4,9|

$$$$
OCNT-2313294
     RDKit          3D

 43 45  0  0  0  0  0  0  0  0999 V2000
   -2.8958   -3.8276   -1.9701 C   0  0  0  0  0  0  0  0  0  0  0  0
   -2.4473   -2.4931   -1.7740 O   0  0  0  0  0  0  0  0  0  0  0  0
   -3.2358   -1.6405   -1.0552 C   0  0  0  0  0  0  0  0  0  0  0  0
   -4.4918   -1.9849   -0.5392 C   0  0  0  0  0  0  0  0  0  0  0  0
   -5.2588   -1.0394    0.1465 C   0  0  0  0  0  0  0  0  0  0  0  0
   -6.8001   -1.4841    0.7713 Cl  0  0  0  0  0  0  0  0  0  0  0  0
   -4.7957    0.2605    0.3228 C   0  0  0  0  0  0  0  0  0  0  0  0
   -3.5459    0.6168   -0.1802 C   0  0  0  0  0  0  0  0  0  0  0  0
   -2.7633   -0.3344   -0.8551 C   0  0  0  0  0  0  0  0  0  0  0  0
   -1.1542    0.1430   -1.4502 S   0  0  0  0  0  0  0  0  0  0  0  0
   -1.3559    0.7504   -2.7469 O   0  0  0  0  0  0  0  0  0  0  0  0
   -0.2066   -0.9254   -1.2241 O   0  0  0  0  0  0  0  0  0  0  0  0
   -0.7229    1.4023   -0.4113 N   0  0  0  0  0  0  0  0  0  0  0  0
   -0.0155    1.0391    0.8308 C   0  0  0  0  0  0  0  0  0  0  0  0
   -0.3946    2.0599    1.9012 C   0  0  0  0  0  0  0  0  0  0  0  0
    1.4569    1.1140    0.5381 C   0  0  0  0  0  0  0  0  0  0  0  0
    2.0310    2.0378   -0.2139 N   0  0  0  0  0  0  0  0  0  0  0  0
    3.3629    1.7169   -0.2461 C   0  0  0  0  0  0  0  0  0  0  0  0
    4.4158    2.3678   -0.9052 C   0  0  0  0  0  0  0  0  0  0  0  0
    5.7098    1.8494   -0.7868 C   0  0  0  0  0  0  0  0  0  0  0  0
    5.9506    0.7051   -0.0260 C   0  0  0  0  0  0  0  0  0  0  0  0
    4.9126    0.0417    0.6398 C   0  0  0  0  0  0  0  0  0  0  0  0
    3.6235    0.5761    0.5088 C   0  0  0  0  0  0  0  0  0  0  0  0
    2.3897    0.2131    1.0019 N   0  0  0  0  0  0  0  0  0  0  0  0
    2.1166   -0.8874    1.8992 C   0  0  0  0  0  0  0  0  0  0  0  0
    1.5308   -0.4330    3.0408 F   0  0  0  0  0  0  0  0  0  0  0  0
    1.2493   -1.7761    1.3539 F   0  0  0  0  0  0  0  0  0  0  0  0
   -3.0131   -4.3491   -1.0146 H   0  0  0  0  0  0  0  0  0  0  0  0
   -2.1304   -4.3558   -2.5469 H   0  0  0  0  0  0  0  0  0  0  0  0
   -3.8238   -3.8496   -2.5509 H   0  0  0  0  0  0  0  0  0  0  0  0
   -4.9021   -2.9816   -0.6650 H   0  0  0  0  0  0  0  0  0  0  0  0
   -5.4012    0.9981    0.8429 H   0  0  0  0  0  0  0  0  0  0  0  0
   -3.1972    1.6390   -0.0529 H   0  0  0  0  0  0  0  0  0  0  0  0
   -0.2557    2.1492   -0.9372 H   0  0  0  0  0  0  0  0  0  0  0  0
   -0.3319    0.0516    1.1782 H   0  0  0  0  0  0  0  0  0  0  0  0
    0.1231    1.8529    2.8437 H   0  0  0  0  0  0  0  0  0  0  0  0
   -1.4727    2.0365    2.0945 H   0  0  0  0  0  0  0  0  0  0  0  0
   -0.1373    3.0818    1.5974 H   0  0  0  0  0  0  0  0  0  0  0  0
    4.2196    3.2552   -1.4970 H   0  0  0  0  0  0  0  0  0  0  0  0
    6.5332    2.3450   -1.2955 H   0  0  0  0  0  0  0  0  0  0  0  0
    6.9657    0.3188    0.0480 H   0  0  0  0  0  0  0  0  0  0  0  0
    5.1198   -0.8503    1.2210 H   0  0  0  0  0  0  0  0  0  0  0  0
    3.0384   -1.4095    2.1635 H   0  0  0  0  0  0  0  0  0  0  0  0
  1  2  1  0
  2  3  1  0
  3  4  1  0
  4  5  2  0
  5  6  1  0
  5  7  1  0
  7  8  2  0
  8  9  1  0
  9 10  1  0
 10 11  2  0
 10 12  2  0
 10 13  1  0
 13 14  1  0
 14 15  1  0
 14 16  1  0
 16 17  2  0
 17 18  1  0
 18 19  2  0
 19 20  1  0
 20 21  2  0
 21 22  1  0
 22 23  2  0
 23 24  1  0
 24 25  1  0
 25 26  1  0
 25 27  1  0
  9  3  2  0
 24 16  1  0
 23 18  1  0
  1 28  1  0
  1 29  1  0
  1 30  1  0
  4 31  1  0
  7 32  1  0
  8 33  1  0
 13 34  1  0
 14 35  1  0
 15 36  1  0
 15 37  1  0
 15 38  1  0
 19 39  1  0
 20 40  1  0
 21 41  1  0
 22 42  1  0
 25 43  1  0
M  END
$$$$
OCNT-2313300
     RDKit          3D

 37 39  0  0  0  0  0  0  0  0999 V2000
    3.3022   -1.1368   -1.7240 C   0  0  0  0  0  0  0  0  0  0  0  0
    3.3898    0.3770   -1.6041 C   0  0  0  0  0  0  0  0  0  0  0  0
    3.7889    0.8061   -0.2252 C   0  0  0  0  0  0  0  0  0  0  0  0
    3.1498    0.7254    1.0136 C   0  0  0  0  0  0  0  0  0  0  0  0
    1.8090    0.2150    1.3259 C   0  0  0  0  0  0  0  0  0  0  0  0
    1.6069   -0.4228    2.3522 O   0  0  0  0  0  0  0  0  0  0  0  0
    0.8542    0.5861    0.4002 N   0  0  0  0  0  0  0  0  0  0  0  0
   -0.5064    0.2277    0.3705 C   0  0  0  0  0  0  0  0  0  0  0  0
   -1.3015    0.8115   -0.6204 C   0  0  0  0  0  0  0  0  0  0  0  0
   -2.6645    0.5038   -0.7252 C   0  0  0  0  0  0  0  0  0  0  0  0
   -3.2575   -0.4017    0.1637 C   0  0  0  0  0  0  0  0  0  0  0  0
   -4.6438   -0.7184    0.0621 N   0  0  0  0  0  0  0  0  0  0  0  0
   -5.5522   -0.2257   -0.8525 C   0  0  0  0  0  0  0  0  0  0  0  0
   -6.7568   -0.8192   -0.5583 C   0  0  0  0  0  0  0  0  0  0  0  0
   -6.6332   -1.6629    0.5051 N   0  0  0  0  0  0  0  0  0  0  0  0
   -5.3679   -1.5843    0.8561 C   0  0  0  0  0  0  0  0  0  0  0  0
   -2.4592   -0.9901    1.1531 C   0  0  0  0  0  0  0  0  0  0  0  0
   -1.0955   -0.6769    1.2516 C   0  0  0  0  0  0  0  0  0  0  0  0
    4.0914    1.1864    1.9832 C   0  0  0  0  0  0  0  0  0  0  0  0
    5.2312    1.5754    1.3232 C   0  0  0  0  0  0  0  0  0  0  0  0
    5.0399    1.3453   -0.0098 N   0  0  0  0  0  0  0  0  0  0  0  0
    4.2589   -1.6088   -1.4754 H   0  0  0  0  0  0  0  0  0  0  0  0
    3.0399   -1.4201   -2.7483 H   0  0  0  0  0  0  0  0  0  0  0  0
    2.5403   -1.5503   -1.0553 H   0  0  0  0  0  0  0  0  0  0  0  0
    2.4338    0.8290   -1.8850 H   0  0  0  0  0  0  0  0  0  0  0  0
    4.1213    0.7438   -2.3352 H   0  0  0  0  0  0  0  0  0  0  0  0
    1.1610    1.2548   -0.2911 H   0  0  0  0  0  0  0  0  0  0  0  0
   -0.8754    1.5193   -1.3275 H   0  0  0  0  0  0  0  0  0  0  0  0
   -3.2268    0.9935   -1.5142 H   0  0  0  0  0  0  0  0  0  0  0  0
   -5.2952    0.4854   -1.6213 H   0  0  0  0  0  0  0  0  0  0  0  0
   -7.7056   -0.6794   -1.0604 H   0  0  0  0  0  0  0  0  0  0  0  0
   -4.9365   -2.1371    1.6781 H   0  0  0  0  0  0  0  0  0  0  0  0
   -2.8513   -1.7017    1.8739 H   0  0  0  0  0  0  0  0  0  0  0  0
   -0.5209   -1.1667    2.0327 H   0  0  0  0  0  0  0  0  0  0  0  0
    3.9328    1.2271    3.0543 H   0  0  0  0  0  0  0  0  0  0  0  0
    6.1648    1.9800    1.6908 H   0  0  0  0  0  0  0  0  0  0  0  0
    5.7343    1.5103   -0.7277 H   0  0  0  0  0  0  0  0  0  0  0  0
  1  2  1  0
  2  3  1  0
  3  4  2  0
  4  5  1  0
  5  6  2  0
  5  7  1  0
  7  8  1  0
  8  9  1  0
  9 10  2  0
 10 11  1  0
 11 12  1  0
 12 13  1  0
 13 14  2  0
 14 15  1  0
 15 16  2  0
 11 17  2  0
 17 18  1  0
  4 19  1  0
 19 20  2  0
 20 21  1  0
 21  3  1  0
 18  8  2  0
 16 12  1  0
  1 22  1  0
  1 23  1  0
  1 24  1  0
  2 25  1  0
  2 26  1  0
  7 27  1  0
  9 28  1  0
 10 29  1  0
 13 30  1  0
 14 31  1  0
 16 32  1  0
 17 33  1  0
 18 34  1  0
 19 35  1  0
 20 36  1  0
 21 37  1  0
M  END
$$$$
OCNT-2313305
     RDKit          3D

  0  0  0  0  0  0  0  0  0  0999 V3000
M  V30 BEGIN CTAB
M  V30 COUNTS 41 42 0 0 0
M  V30 BEGIN ATOM
M  V30 1 C -4.746423 2.707872 0.388273 0
M  V30 2 C -3.504298 1.913783 0.114847 0
M  V30 3 C -2.316972 2.566752 -0.199382 0
M  V30 4 C -1.173197 1.811142 -0.444143 0
M  V30 5 C -1.247206 0.425456 -0.371804 0
M  V30 6 N -0.149568 -0.441223 -0.560560 0
M  V30 7 C 1.116374 -0.131836 -0.983457 0
M  V30 8 O 1.509613 0.965944 -1.356361 0
M  V30 9 N 1.930696 -1.244248 -0.957529 0
M  V30 10 C 3.330656 -1.160910 -1.301209 0
M  V30 11 C 4.134510 -0.898357 -0.068476 0 CFG=1
M  V30 12 C 5.450375 -0.160269 -0.144355 0
M  V30 13 C 4.246548 0.509897 0.481675 0 CFG=2
M  V30 14 C 4.147089 0.768333 1.939438 0
M  V30 15 F 2.855076 0.804979 2.333834 0
M  V30 16 F 4.716425 1.953308 2.253752 0
M  V30 17 F 4.770368 -0.193853 2.660255 0
M  V30 18 C -2.491203 -0.166551 -0.054423 0
M  V30 19 N -2.558771 -1.601407 -0.027634 0
M  V30 20 C -3.042064 -2.041522 -1.343869 0
M  V30 21 C -3.438954 -2.029985 1.065861 0
M  V30 22 N -3.603282 0.565262 0.188160 0
M  V30 23 H -5.588086 2.047233 0.620090 0
M  V30 24 H -4.589682 3.372720 1.243349 0
M  V30 25 H -5.013836 3.305510 -0.488688 0
M  V30 26 H -2.272567 3.650171 -0.248478 0
M  V30 27 H -0.245381 2.323644 -0.673439 0
M  V30 28 H -0.396306 -1.416654 -0.437768 0
M  V30 29 H 1.648436 -1.991142 -0.341736 0
M  V30 30 H 3.484748 -0.389371 -2.063433 0
M  V30 31 H 3.617638 -2.126772 -1.728754 0
M  V30 32 H 4.073923 -1.721444 0.636597 0
M  V30 33 H 6.254048 -0.487607 0.507044 0
M  V30 34 H 5.786979 0.212127 -1.105754 0
M  V30 35 H 3.781644 1.318383 -0.070049 0
M  V30 36 H -2.357084 -1.735069 -2.143084 0
M  V30 37 H -3.089422 -3.136052 -1.368042 0
M  V30 38 H -4.044069 -1.655851 -1.569078 0
M  V30 39 H -4.486407 -1.748196 0.903631 0
M  V30 40 H -3.400239 -3.121761 1.151953 0
M  V30 41 H -3.100131 -1.622435 2.025679 0
M  V30 END ATOM
M  V30 BEGIN BOND
M  V30 1 1 1 2
M  V30 2 2 2 3
M  V30 3 1 3 4
M  V30 4 2 4 5
M  V30 5 1 5 6
M  V30 6 1 6 7
M  V30 7 2 7 8
M  V30 8 1 7 9
M  V30 9 1 9 10
M  V30 10 1 10 11
M  V30 11 1 11 12
M  V30 12 1 12 13
M  V30 13 1 13 14
M  V30 14 1 14 15
M  V30 15 1 14 16
M  V30 16 1 14 17
M  V30 17 1 5 18
M  V30 18 1 18 19
M  V30 19 1 19 20
M  V30 20 1 19 21
M  V30 21 2 18 22
M  V30 22 1 22 2
M  V30 23 1 13 11
M  V30 24 1 1 23
M  V30 25 1 1 24
M  V30 26 1 1 25
M  V30 27 1 3 26
M  V30 28 1 4 27
M  V30 29 1 6 28
M  V30 30 1 9 29
M  V30 31 1 10 30
M  V30 32 1 10 31
M  V30 33 1 11 32 CFG=1
M  V30 34 1 12 33
M  V30 35 1 12 34
M  V30 36 1 13 35 CFG=3
M  V30 37 1 20 36
M  V30 38 1 20 37
M  V30 39 1 20 38
M  V30 40 1 21 39
M  V30 41 1 21 40
M  V30 42 1 21 41
M  V30 END BOND
M  V30 BEGIN COLLECTION
M  V30 MDLV30/STERAC1 ATOMS=(2 11 13)
M  V30 END COLLECTION
M  V30 END CTAB
M  END
>  <_CXSMILES_Data>  (732) 
|&1:10,12|

$$$$
OCNT-2313325
     RDKit          3D

 54 57  0  0  0  0  0  0  0  0999 V2000
    0.9062   -2.3665   -2.5311 O   0  0  0  0  0  0  0  0  0  0  0  0
    0.8355   -1.3980   -1.7774 C   0  0  0  0  0  0  0  0  0  0  0  0
   -0.3637   -0.9326   -1.3094 N   0  0  0  0  0  0  0  0  0  0  0  0
   -1.6166   -1.6068   -1.6553 C   0  0  0  0  0  0  0  0  0  0  0  0
   -1.8115   -2.8927   -0.8526 C   0  0  0  0  0  0  0  0  0  0  0  0
   -2.3168   -2.3954    0.5029 C   0  0  0  0  0  0  0  0  0  0  0  0
   -3.0033   -1.1374    0.1995 N   0  0  0  0  0  0  0  0  0  0  0  0
   -3.8123   -0.4718    1.0883 C   0  0  0  0  0  0  0  0  0  0  0  0
   -3.8089   -0.7802    2.4585 C   0  0  0  0  0  0  0  0  0  0  0  0
   -4.6093   -0.0917    3.3741 C   0  0  0  0  0  0  0  0  0  0  0  0
   -5.4427    0.9297    2.9340 C   0  0  0  0  0  0  0  0  0  0  0  0
   -5.4946    1.2534    1.5795 C   0  0  0  0  0  0  0  0  0  0  0  0
   -6.3629    2.2641    1.2747 O   0  0  0  0  0  0  0  0  0  0  0  0
   -6.7155    2.4361   -0.0907 C   0  0  0  0  0  0  0  0  0  0  0  0
   -7.1921    1.2887   -0.6235 F   0  0  0  0  0  0  0  0  0  0  0  0
   -7.6886    3.3712   -0.1740 F   0  0  0  0  0  0  0  0  0  0  0  0
   -5.6596    2.8689   -0.8194 F   0  0  0  0  0  0  0  0  0  0  0  0
   -4.6782    0.5586    0.6766 C   0  0  0  0  0  0  0  0  0  0  0  0
   -2.8352   -0.7770   -1.2142 C   0  0  0  0  0  0  0  0  0  0  0  0
    1.9449   -0.7065   -1.3232 N   0  0  0  0  0  0  0  0  0  0  0  0
    3.2494   -1.1362   -1.8387 C   0  0  0  0  0  0  0  0  0  0  0  0
    4.4099   -0.7676   -0.9014 C   0  0  0  0  0  0  0  0  0  0  0  0
    4.3552    0.6552   -0.5317 N   0  0  0  0  0  0  0  0  0  0  0  0
    5.4513    1.0885    0.2187 C   0  0  0  0  0  0  0  0  0  0  0  0
    5.3455    2.2277    0.9249 N   0  0  0  0  0  0  0  0  0  0  0  0
    6.4234    2.6487    1.6127 C   0  0  0  0  0  0  0  0  0  0  0  0
    7.6192    1.9819    1.6290 C   0  0  0  0  0  0  0  0  0  0  0  0
    7.6476    0.8319    0.8843 C   0  0  0  0  0  0  0  0  0  0  0  0
    6.5908    0.3731    0.1850 N   0  0  0  0  0  0  0  0  0  0  0  0
    3.0624    1.1070    0.0017 C   0  0  0  0  0  0  0  0  0  0  0  0
    1.9048    0.7116   -0.9335 C   0  0  0  0  0  0  0  0  0  0  0  0
   -0.3404   -0.5425   -0.3794 H   0  0  0  0  0  0  0  0  0  0  0  0
   -1.6217   -1.7914   -2.7348 H   0  0  0  0  0  0  0  0  0  0  0  0
   -2.5874   -3.5059   -1.3288 H   0  0  0  0  0  0  0  0  0  0  0  0
   -0.9105   -3.5046   -0.7510 H   0  0  0  0  0  0  0  0  0  0  0  0
   -2.9848   -3.1366    0.9539 H   0  0  0  0  0  0  0  0  0  0  0  0
   -1.4731   -2.2107    1.1778 H   0  0  0  0  0  0  0  0  0  0  0  0
   -3.1627   -1.5633    2.8467 H   0  0  0  0  0  0  0  0  0  0  0  0
   -4.5822   -0.3561    4.4289 H   0  0  0  0  0  0  0  0  0  0  0  0
   -6.0637    1.4646    3.6484 H   0  0  0  0  0  0  0  0  0  0  0  0
   -4.7155    0.8026   -0.3783 H   0  0  0  0  0  0  0  0  0  0  0  0
   -3.7267   -1.0739   -1.7822 H   0  0  0  0  0  0  0  0  0  0  0  0
   -2.6526    0.2946   -1.3518 H   0  0  0  0  0  0  0  0  0  0  0  0
    3.2544   -2.2193   -2.0086 H   0  0  0  0  0  0  0  0  0  0  0  0
    3.3844   -0.6515   -2.8149 H   0  0  0  0  0  0  0  0  0  0  0  0
    5.3425   -1.0092   -1.4252 H   0  0  0  0  0  0  0  0  0  0  0  0
    4.3503   -1.3880    0.0034 H   0  0  0  0  0  0  0  0  0  0  0  0
    6.2878    3.5749    2.1629 H   0  0  0  0  0  0  0  0  0  0  0  0
    8.4755    2.3375    2.1830 H   0  0  0  0  0  0  0  0  0  0  0  0
    8.5458    0.2252    0.8162 H   0  0  0  0  0  0  0  0  0  0  0  0
    2.8937    0.6578    0.9902 H   0  0  0  0  0  0  0  0  0  0  0  0
    3.0331    2.1986    0.1112 H   0  0  0  0  0  0  0  0  0  0  0  0
    1.9623    1.2886   -1.8628 H   0  0  0  0  0  0  0  0  0  0  0  0
    0.9571    0.9727   -0.4582 H   0  0  0  0  0  0  0  0  0  0  0  0
  1  2  2  0
  2  3  1  0
  3  4  1  0
  4  5  1  0
  5  6  1  0
  6  7  1  0
  7  8  1  0
  8  9  2  0
  9 10  1  0
 10 11  2  0
 11 12  1  0
 12 13  1  0
 13 14  1  0
 14 15  1  0
 14 16  1  0
 14 17  1  0
 12 18  2  0
  7 19  1  0
  2 20  1  0
 20 21  1  0
 21 22  1  0
 22 23  1  0
 23 24  1  0
 24 25  2  0
 25 26  1  0
 26 27  2  0
 27 28  1  0
 28 29  2  0
 23 30  1  0
 30 31  1  0
 19  4  1  0
 31 20  1  0
 18  8  1  0
 29 24  1  0
  3 32  1  0
  4 33  1  0
  5 34  1  0
  5 35  1  0
  6 36  1  0
  6 37  1  0
  9 38  1  0
 10 39  1  0
 11 40  1  0
 18 41  1  0
 19 42  1  0
 19 43  1  0
 21 44  1  0
 21 45  1  0
 22 46  1  0
 22 47  1  0
 26 48  1  0
 27 49  1  0
 28 50  1  0
 30 51  1  0
 30 52  1  0
 31 53  1  0
 31 54  1  0
M  END
$$$$
OCNT-2313360
     RDKit          3D

 50 53  0  0  0  0  0  0  0  0999 V2000
    3.5431    0.6632    3.3286 O   0  0  0  0  0  0  0  0  0  0  0  0
    3.6731    1.3711    2.0726 S   0  0  0  0  0  0  0  0  0  0  0  0
    3.8126    2.8119    2.0350 O   0  0  0  0  0  0  0  0  0  0  0  0
    2.2648    0.9439    1.0686 C   0  0  0  0  0  0  0  0  0  0  0  0
    1.8180    1.8339    0.0878 C   0  0  0  0  0  0  0  0  0  0  0  0
    0.7015    1.5076   -0.6849 C   0  0  0  0  0  0  0  0  0  0  0  0
    0.0174    0.3014   -0.4729 C   0  0  0  0  0  0  0  0  0  0  0  0
   -1.1956   -0.0554   -1.3030 C   0  0  0  0  0  0  0  0  0  0  0  0
   -2.4009   -0.0859   -0.4712 N   0  0  0  0  0  0  0  0  0  0  0  0
   -3.5633   -0.4554   -1.2908 C   0  0  0  0  0  0  0  0  0  0  0  0
   -3.6774   -2.0104   -1.3076 C   0  0  0  0  0  0  0  0  0  0  0  0
   -4.6264   -1.9257   -0.0828 C   0  0  0  0  0  0  0  0  0  0  0  0
   -4.8126   -0.4627   -0.4384 C   0  0  0  0  0  0  0  0  0  0  0  0
   -6.1283   -0.0916   -1.1058 C   0  0  0  0  0  0  0  0  0  0  0  0
   -6.5755    0.4346    0.2810 C   0  0  0  0  0  0  0  0  0  0  0  0
   -5.0769    0.5369    0.6624 C   0  0  0  0  0  0  0  0  0  0  0  0
    0.4610   -0.5675    0.5374 C   0  0  0  0  0  0  0  0  0  0  0  0
    1.5748   -0.2458    1.3142 C   0  0  0  0  0  0  0  0  0  0  0  0
    4.9770    0.7019    1.2285 N   0  0  0  0  0  0  0  0  0  0  0  0
    5.1108   -0.7806    1.1862 C   0  0  0  0  0  0  0  0  0  0  0  0
    5.0310   -1.2916   -0.2562 C   0  0  0  0  0  0  0  0  0  0  0  0
    6.0425   -0.7470   -1.1160 O   0  0  0  0  0  0  0  0  0  0  0  0
    6.4958    0.5544   -0.7151 C   0  0  0  0  0  0  0  0  0  0  0  0
    5.4051    1.3797   -0.0247 C   0  0  0  0  0  0  0  0  0  0  0  0
    2.3267    2.7814   -0.0765 H   0  0  0  0  0  0  0  0  0  0  0  0
    0.3628    2.2062   -1.4475 H   0  0  0  0  0  0  0  0  0  0  0  0
   -1.0118   -1.0295   -1.7725 H   0  0  0  0  0  0  0  0  0  0  0  0
   -1.3156    0.6737   -2.1142 H   0  0  0  0  0  0  0  0  0  0  0  0
   -2.4886    0.8241   -0.0190 H   0  0  0  0  0  0  0  0  0  0  0  0
   -3.6419    0.0491   -2.2585 H   0  0  0  0  0  0  0  0  0  0  0  0
   -4.1757   -2.3910   -2.2081 H   0  0  0  0  0  0  0  0  0  0  0  0
   -2.7657   -2.5952   -1.1528 H   0  0  0  0  0  0  0  0  0  0  0  0
   -5.5092   -2.5690   -0.1322 H   0  0  0  0  0  0  0  0  0  0  0  0
   -4.1190   -2.0996    0.8731 H   0  0  0  0  0  0  0  0  0  0  0  0
   -6.0455    0.6989   -1.8610 H   0  0  0  0  0  0  0  0  0  0  0  0
   -6.7306   -0.9071   -1.5149 H   0  0  0  0  0  0  0  0  0  0  0  0
   -7.1305   -0.3024    0.8729 H   0  0  0  0  0  0  0  0  0  0  0  0
   -7.1288    1.3771    0.2748 H   0  0  0  0  0  0  0  0  0  0  0  0
   -4.8312    0.2283    1.6819 H   0  0  0  0  0  0  0  0  0  0  0  0
   -4.6610    1.5353    0.4833 H   0  0  0  0  0  0  0  0  0  0  0  0
   -0.0817   -1.4917    0.7320 H   0  0  0  0  0  0  0  0  0  0  0  0
    1.8849   -0.9183    2.1106 H   0  0  0  0  0  0  0  0  0  0  0  0
    4.3508   -1.2754    1.7966 H   0  0  0  0  0  0  0  0  0  0  0  0
    6.0865   -1.0305    1.6194 H   0  0  0  0  0  0  0  0  0  0  0  0
    5.1365   -2.3809   -0.2766 H   0  0  0  0  0  0  0  0  0  0  0  0
    4.0571   -1.0506   -0.6974 H   0  0  0  0  0  0  0  0  0  0  0  0
    6.8481    1.0695   -1.6143 H   0  0  0  0  0  0  0  0  0  0  0  0
    7.3595    0.4209   -0.0532 H   0  0  0  0  0  0  0  0  0  0  0  0
    5.7990    2.3718    0.2167 H   0  0  0  0  0  0  0  0  0  0  0  0
    4.5532    1.4841   -0.7031 H   0  0  0  0  0  0  0  0  0  0  0  0
  1  2  2  0
  2  3  2  0
  2  4  1  0
  4  5  1  0
  5  6  2  0
  6  7  1  0
  7  8  1  0
  8  9  1  0
  9 10  1  0
 10 11  1  0
 11 12  1  0
 12 13  1  0
 13 14  1  0
 14 15  1  0
 15 16  1  0
  7 17  2  0
 17 18  1  0
  2 19  1  0
 19 20  1  0
 20 21  1  0
 21 22  1  0
 22 23  1  0
 23 24  1  0
 18  4  2  0
 24 19  1  0
 13 10  1  0
 16 13  1  0
  5 25  1  0
  6 26  1  0
  8 27  1  0
  8 28  1  0
  9 29  1  0
 10 30  1  0
 11 31  1  0
 11 32  1  0
 12 33  1  0
 12 34  1  0
 14 35  1  0
 14 36  1  0
 15 37  1  0
 15 38  1  0
 16 39  1  0
 16 40  1  0
 17 41  1  0
 18 42  1  0
 20 43  1  0
 20 44  1  0
 21 45  1  0
 21 46  1  0
 23 47  1  0
 23 48  1  0
 24 49  1  0
 24 50  1  0
M  END
$$$$
OCNT-2313362
     RDKit          3D

  0  0  0  0  0  0  0  0  0  0999 V3000
M  V30 BEGIN CTAB
M  V30 COUNTS 39 42 0 0 0
M  V30 BEGIN ATOM
M  V30 1 O 1.012213 -2.964235 0.557499 0
M  V30 2 S 0.169380 -1.790363 0.592095 0
M  V30 3 O -1.048867 -1.738102 1.365552 0
M  V30 4 N -0.186067 -1.432399 -1.016930 0
M  V30 5 C -1.430428 -0.696458 -1.360762 0 CFG=2
M  V30 6 C -2.654947 -1.630482 -1.269195 0
M  V30 7 C -3.509196 -1.317276 -2.486795 0
M  V30 8 C -2.477626 -1.033348 -3.561422 0
M  V30 9 C -1.361000 -0.261386 -2.850557 0 CFG=1
M  V30 10 C -1.579847 1.254194 -2.830325 0
M  V30 11 N -2.261788 1.524923 -1.567240 0
M  V30 12 C -1.602612 0.635318 -0.607938 0
M  V30 13 C 1.203421 -0.521902 1.241921 0
M  V30 14 C 1.602858 -0.231441 2.529766 0
M  V30 15 Cl 1.199862 -1.040221 3.964087 0
M  V30 16 C 2.430804 0.898499 2.406761 0
M  V30 17 C 3.126496 1.631354 3.586325 0
M  V30 18 C 4.277505 0.960928 4.293244 0
M  V30 19 C 4.531935 2.150175 3.414988 0
M  V30 20 N 2.539227 1.303310 1.140683 0
M  V30 21 O 1.787238 0.400901 0.409247 0
M  V30 22 H -0.018353 -2.260507 -1.591957 0
M  V30 23 H -3.222691 -1.500638 -0.342209 0
M  V30 24 H -2.346952 -2.683307 -1.312220 0
M  V30 25 H -4.166110 -2.150213 -2.754144 0
M  V30 26 H -4.137188 -0.438109 -2.306094 0
M  V30 27 H -2.902249 -0.493835 -4.413234 0
M  V30 28 H -2.076528 -1.982873 -3.937728 0
M  V30 29 H -0.398399 -0.480711 -3.327985 0
M  V30 30 H -2.160441 1.615803 -3.683976 0
M  V30 31 H -0.610889 1.768788 -2.840385 0
M  V30 32 H -2.141152 2.499976 -1.294664 0
M  V30 33 H -2.201265 0.535464 0.302246 0
M  V30 34 H -0.637193 1.070626 -0.330835 0
M  V30 35 H 2.454402 2.232905 4.190130 0
M  V30 36 H 4.357615 1.093587 5.366155 0
M  V30 37 H 4.618789 -0.006432 3.941787 0
M  V30 38 H 4.783400 3.091792 3.889322 0
M  V30 39 H 5.036642 1.985691 2.469202 0
M  V30 END ATOM
M  V30 BEGIN BOND
M  V30 1 2 1 2
M  V30 2 2 2 3
M  V30 3 1 2 4
M  V30 4 1 5 4 CFG=1
M  V30 5 1 5 6
M  V30 6 1 6 7
M  V30 7 1 7 8
M  V30 8 1 8 9
M  V30 9 1 9 10
M  V30 10 1 10 11
M  V30 11 1 11 12
M  V30 12 1 2 13
M  V30 13 2 13 14
M  V30 14 1 14 15
M  V30 15 1 14 16
M  V30 16 1 16 17
M  V30 17 1 17 18
M  V30 18 1 18 19
M  V30 19 2 16 20
M  V30 20 1 20 21
M  V30 21 1 9 5
M  V30 22 1 21 13
M  V30 23 1 12 5
M  V30 24 1 19 17
M  V30 25 1 4 22
M  V30 26 1 6 23
M  V30 27 1 6 24
M  V30 28 1 7 25
M  V30 29 1 7 26
M  V30 30 1 8 27
M  V30 31 1 8 28
M  V30 32 1 9 29 CFG=3
M  V30 33 1 10 30
M  V30 34 1 10 31
M  V30 35 1 11 32
M  V30 36 1 12 33
M  V30 37 1 12 34
M  V30 38 1 17 35
M  V30 39 1 18 36
M  V30 40 1 18 37
M  V30 41 1 19 38
M  V30 42 1 19 39
M  V30 END BOND
M  V30 BEGIN COLLECTION
M  V30 MDLV30/STERAC1 ATOMS=(2 5 9)
M  V30 END COLLECTION
M  V30 END CTAB
M  END
>  <_CXSMILES_Data>  (735) 
|&1:4,8|

$$$$
OCNT-2313374
     RDKit          3D

 49 52  0  0  0  0  0  0  0  0999 V2000
    6.3327   -1.6027    1.9822 N   0  0  0  0  0  0  0  0  0  0  0  0
    6.9456   -0.8491    1.0147 C   0  0  0  0  0  0  0  0  0  0  0  0
    8.1663   -0.7326    1.0013 O   0  0  0  0  0  0  0  0  0  0  0  0
    6.0954   -0.1864   -0.0194 C   0  0  0  0  0  0  0  0  0  0  0  0
    6.7390    0.4326   -1.0989 C   0  0  0  0  0  0  0  0  0  0  0  0
    5.9956    1.0658   -2.0957 C   0  0  0  0  0  0  0  0  0  0  0  0
    4.6007    1.0790   -2.0201 C   0  0  0  0  0  0  0  0  0  0  0  0
    3.9393    0.4574   -0.9544 C   0  0  0  0  0  0  0  0  0  0  0  0
    2.5280    0.4930   -0.9551 N   0  0  0  0  0  0  0  0  0  0  0  0
    1.6759   -0.2091   -0.1280 C   0  0  0  0  0  0  0  0  0  0  0  0
    1.9936   -1.0139    0.7379 O   0  0  0  0  0  0  0  0  0  0  0  0
    0.3567    0.0930   -0.4215 N   0  0  0  0  0  0  0  0  0  0  0  0
   -0.7000   -0.5142    0.3702 C   0  0  0  0  0  0  0  0  0  0  0  0
   -2.0622   -0.4592   -0.3426 C   0  0  0  0  0  0  0  0  0  0  0  0
   -3.1138   -1.3503    0.3707 C   0  0  0  0  0  0  0  0  0  0  0  0
   -3.4939   -0.7556    1.7419 C   0  0  0  0  0  0  0  0  0  0  0  0
   -4.0756    0.6587    1.5652 C   0  0  0  0  0  0  0  0  0  0  0  0
   -5.3317    0.5801    0.6801 C   0  0  0  0  0  0  0  0  0  0  0  0
   -4.9692   -0.0059   -0.6963 C   0  0  0  0  0  0  0  0  0  0  0  0
   -4.3834   -1.4162   -0.5025 C   0  0  0  0  0  0  0  0  0  0  0  0
   -3.9165    0.8930   -1.3683 C   0  0  0  0  0  0  0  0  0  0  0  0
   -2.6462    0.9734   -0.4933 C   0  0  0  0  0  0  0  0  0  0  0  0
   -3.0356    1.5595    0.8785 C   0  0  0  0  0  0  0  0  0  0  0  0
    4.6941   -0.1501    0.0560 C   0  0  0  0  0  0  0  0  0  0  0  0
    6.9319   -2.1211    2.6131 H   0  0  0  0  0  0  0  0  0  0  0  0
    5.3453   -1.8442    1.9803 H   0  0  0  0  0  0  0  0  0  0  0  0
    7.8268    0.4219   -1.1671 H   0  0  0  0  0  0  0  0  0  0  0  0
    6.5043    1.5512   -2.9263 H   0  0  0  0  0  0  0  0  0  0  0  0
    4.0431    1.5833   -2.8033 H   0  0  0  0  0  0  0  0  0  0  0  0
    2.0860    0.9276   -1.7513 H   0  0  0  0  0  0  0  0  0  0  0  0
    0.2110    1.0547   -0.6875 H   0  0  0  0  0  0  0  0  0  0  0  0
   -0.4286   -1.5613    0.5523 H   0  0  0  0  0  0  0  0  0  0  0  0
   -0.7067   -0.0118    1.3420 H   0  0  0  0  0  0  0  0  0  0  0  0
   -1.9048   -0.8639   -1.3555 H   0  0  0  0  0  0  0  0  0  0  0  0
   -2.7190   -2.3642    0.5065 H   0  0  0  0  0  0  0  0  0  0  0  0
   -4.2319   -1.4009    2.2334 H   0  0  0  0  0  0  0  0  0  0  0  0
   -2.6225   -0.7231    2.4059 H   0  0  0  0  0  0  0  0  0  0  0  0
   -4.3387    1.0742    2.5452 H   0  0  0  0  0  0  0  0  0  0  0  0
   -6.0925   -0.0431    1.1655 H   0  0  0  0  0  0  0  0  0  0  0  0
   -5.7688    1.5792    0.5603 H   0  0  0  0  0  0  0  0  0  0  0  0
   -5.8664   -0.0612   -1.3235 H   0  0  0  0  0  0  0  0  0  0  0  0
   -5.1281   -2.0682   -0.0308 H   0  0  0  0  0  0  0  0  0  0  0  0
   -4.1455   -1.8622   -1.4762 H   0  0  0  0  0  0  0  0  0  0  0  0
   -4.3279    1.8987   -1.5261 H   0  0  0  0  0  0  0  0  0  0  0  0
   -3.6635    0.4933   -2.3575 H   0  0  0  0  0  0  0  0  0  0  0  0
   -1.9232    1.6339   -0.9834 H   0  0  0  0  0  0  0  0  0  0  0  0
   -2.1537    1.6730    1.5177 H   0  0  0  0  0  0  0  0  0  0  0  0
   -3.4500    2.5670    0.7450 H   0  0  0  0  0  0  0  0  0  0  0  0
    4.1885   -0.5732    0.9187 H   0  0  0  0  0  0  0  0  0  0  0  0
  1  2  1  0
  2  3  2  0
  2  4  1  0
  4  5  1  0
  5  6  2  0
  6  7  1  0
  7  8  2  0
  8  9  1  0
  9 10  1  0
 10 11  2  0
 10 12  1  0
 12 13  1  0
 13 14  1  0
 14 15  1  0
 15 16  1  0
 16 17  1  0
 17 18  1  0
 18 19  1  0
 19 20  1  0
 19 21  1  0
 21 22  1  0
 22 23  1  0
  8 24  1  0
 24  4  2  0
 22 14  1  0
 20 15  1  0
 23 17  1  0
  1 25  1  0
  1 26  1  0
  5 27  1  0
  6 28  1  0
  7 29  1  0
  9 30  1  0
 12 31  1  0
 13 32  1  0
 13 33  1  0
 14 34  1  0
 15 35  1  0
 16 36  1  0
 16 37  1  0
 17 38  1  0
 18 39  1  0
 18 40  1  0
 19 41  1  0
 20 42  1  0
 20 43  1  0
 21 44  1  0
 21 45  1  0
 22 46  1  0
 23 47  1  0
 23 48  1  0
 24 49  1  0
M  END
$$$$
OCNT-2313383
     RDKit          3D

 44 46  0  0  0  0  0  0  0  0999 V2000
    6.6048   -0.1874   -0.8796 C   0  0  0  0  0  0  0  0  0  0  0  0
    5.1546   -0.1021   -0.8132 N   0  0  0  0  0  0  0  0  0  0  0  0
    4.5809    0.6437    0.1972 C   0  0  0  0  0  0  0  0  0  0  0  0
    3.2522    0.7591    0.3043 C   0  0  0  0  0  0  0  0  0  0  0  0
    2.3731    0.0968   -0.6403 C   0  0  0  0  0  0  0  0  0  0  0  0
    1.0204    0.2911   -0.4418 N   0  0  0  0  0  0  0  0  0  0  0  0
   -0.0377   -0.3285   -1.0760 C   0  0  0  0  0  0  0  0  0  0  0  0
    0.0893   -1.2791   -1.8440 O   0  0  0  0  0  0  0  0  0  0  0  0
   -1.2970    0.2007   -0.7504 N   0  0  0  0  0  0  0  0  0  0  0  0
   -2.4537   -0.6300   -1.1030 C   0  0  0  0  0  0  0  0  0  0  0  0
   -2.9227   -1.4672    0.0662 C   0  0  0  0  0  0  0  0  0  0  0  0
   -2.1905   -2.5958    0.4719 C   0  0  0  0  0  0  0  0  0  0  0  0
   -2.6083   -3.3665    1.5602 C   0  0  0  0  0  0  0  0  0  0  0  0
   -3.7632   -3.0170    2.2560 C   0  0  0  0  0  0  0  0  0  0  0  0
   -4.4902   -1.9028    1.8557 C   0  0  0  0  0  0  0  0  0  0  0  0
   -5.6012   -1.5654    2.5240 F   0  0  0  0  0  0  0  0  0  0  0  0
   -4.0844   -1.1288    0.7726 C   0  0  0  0  0  0  0  0  0  0  0  0
   -1.5205    1.4188    0.0845 C   0  0  0  0  0  0  0  0  0  0  0  0
   -0.8142    2.7142   -0.4202 C   0  0  0  0  0  0  0  0  0  0  0  0
   -2.0359    3.4939    0.0995 C   0  0  0  0  0  0  0  0  0  0  0  0
   -2.8470    2.2057   -0.1302 C   0  0  0  0  0  0  0  0  0  0  0  0
    2.9121   -0.6233   -1.6358 C   0  0  0  0  0  0  0  0  0  0  0  0
    4.3881   -0.7616   -1.7715 C   0  0  0  0  0  0  0  0  0  0  0  0
    4.8475   -1.4273   -2.6960 O   0  0  0  0  0  0  0  0  0  0  0  0
    6.9392   -0.8267   -1.7010 H   0  0  0  0  0  0  0  0  0  0  0  0
    6.9821   -0.6006    0.0614 H   0  0  0  0  0  0  0  0  0  0  0  0
    7.0133    0.8172   -1.0283 H   0  0  0  0  0  0  0  0  0  0  0  0
    5.2526    1.1312    0.8976 H   0  0  0  0  0  0  0  0  0  0  0  0
    2.8299    1.3531    1.1075 H   0  0  0  0  0  0  0  0  0  0  0  0
    0.7674    0.8308    0.3696 H   0  0  0  0  0  0  0  0  0  0  0  0
   -3.2627    0.0086   -1.4698 H   0  0  0  0  0  0  0  0  0  0  0  0
   -2.2198   -1.2979   -1.9405 H   0  0  0  0  0  0  0  0  0  0  0  0
   -1.2871   -2.8830   -0.0661 H   0  0  0  0  0  0  0  0  0  0  0  0
   -2.0324   -4.2384    1.8602 H   0  0  0  0  0  0  0  0  0  0  0  0
   -4.1016   -3.6055    3.1025 H   0  0  0  0  0  0  0  0  0  0  0  0
   -4.6856   -0.2699    0.4912 H   0  0  0  0  0  0  0  0  0  0  0  0
   -1.3305    1.2041    1.1452 H   0  0  0  0  0  0  0  0  0  0  0  0
    0.1308    2.9746    0.0637 H   0  0  0  0  0  0  0  0  0  0  0  0
   -0.6853    2.7710   -1.5078 H   0  0  0  0  0  0  0  0  0  0  0  0
   -1.9594    3.7885    1.1524 H   0  0  0  0  0  0  0  0  0  0  0  0
   -2.3367    4.3606   -0.4939 H   0  0  0  0  0  0  0  0  0  0  0  0
   -3.6373    2.0203    0.6013 H   0  0  0  0  0  0  0  0  0  0  0  0
   -3.2733    2.1582   -1.1387 H   0  0  0  0  0  0  0  0  0  0  0  0
    2.3400   -1.1376   -2.3959 H   0  0  0  0  0  0  0  0  0  0  0  0
  1  2  1  0
  2  3  1  0
  3  4  2  0
  4  5  1  0
  5  6  1  0
  6  7  1  0
  7  8  2  0
  7  9  1  0
  9 10  1  0
 10 11  1  0
 11 12  2  0
 12 13  1  0
 13 14  2  0
 14 15  1  0
 15 16  1  0
 15 17  2  0
  9 18  1  0
 18 19  1  0
 19 20  1  0
 20 21  1  0
  5 22  2  0
 22 23  1  0
 23 24  2  0
 23  2  1  0
 17 11  1  0
 21 18  1  0
  1 25  1  0
  1 26  1  0
  1 27  1  0
  3 28  1  0
  4 29  1  0
  6 30  1  0
 10 31  1  0
 10 32  1  0
 12 33  1  0
 13 34  1  0
 14 35  1  0
 17 36  1  0
 18 37  1  0
 19 38  1  0
 19 39  1  0
 20 40  1  0
 20 41  1  0
 21 42  1  0
 21 43  1  0
 22 44  1  0
M  END
$$$$
OCNT-2313386
     RDKit          3D

 53 55  0  0  0  0  0  0  0  0999 V2000
   -9.8762   -0.8247   -0.0976 C   0  0  0  0  0  0  0  0  0  0  0  0
   -8.8304   -0.7233   -1.0559 O   0  0  0  0  0  0  0  0  0  0  0  0
   -7.5510   -0.8549   -0.5918 C   0  0  0  0  0  0  0  0  0  0  0  0
   -7.1731   -1.0251    0.7399 C   0  0  0  0  0  0  0  0  0  0  0  0
   -5.8197   -1.1449    1.0787 C   0  0  0  0  0  0  0  0  0  0  0  0
   -4.8283   -1.1019    0.0901 C   0  0  0  0  0  0  0  0  0  0  0  0
   -3.3696   -1.2093    0.4500 C   0  0  0  0  0  0  0  0  0  0  0  0
   -2.7577    0.0988    0.4824 N   0  0  0  0  0  0  0  0  0  0  0  0
   -1.9330    0.5474   -0.5227 C   0  0  0  0  0  0  0  0  0  0  0  0
   -1.6203   -0.1297   -1.5012 O   0  0  0  0  0  0  0  0  0  0  0  0
   -1.4696    1.9972   -0.3579 C   0  0  0  0  0  0  0  0  0  0  0  0
   -0.1762    2.1565   -0.9962 N   0  0  0  0  0  0  0  0  0  0  0  0
    0.9801    2.0282   -0.2552 C   0  0  0  0  0  0  0  0  0  0  0  0
    0.9896    1.9855    0.9693 O   0  0  0  0  0  0  0  0  0  0  0  0
    2.2275    1.9787   -1.1180 C   0  0  0  0  0  0  0  0  0  0  0  0
    3.5085    1.7194   -0.3284 C   0  0  0  0  0  0  0  0  0  0  0  0
    3.6042    0.2755    0.1769 C   0  0  0  0  0  0  0  0  0  0  0  0
    4.9083    0.0097    0.8615 C   0  0  0  0  0  0  0  0  0  0  0  0
    5.1682    0.1702    2.2084 C   0  0  0  0  0  0  0  0  0  0  0  0
    6.4731   -0.1697    2.4389 N   0  0  0  0  0  0  0  0  0  0  0  0
    7.0810   -0.5501    1.2655 C   0  0  0  0  0  0  0  0  0  0  0  0
    8.3946   -0.9716    1.0252 C   0  0  0  0  0  0  0  0  0  0  0  0
    8.7399   -1.3001   -0.2888 C   0  0  0  0  0  0  0  0  0  0  0  0
    7.8073   -1.2091   -1.3193 C   0  0  0  0  0  0  0  0  0  0  0  0
    6.4985   -0.7849   -1.0614 C   0  0  0  0  0  0  0  0  0  0  0  0
    6.1231   -0.4488    0.2561 C   0  0  0  0  0  0  0  0  0  0  0  0
   -5.2141   -0.9233   -1.2441 C   0  0  0  0  0  0  0  0  0  0  0  0
   -6.5646   -0.8024   -1.5788 C   0  0  0  0  0  0  0  0  0  0  0  0
   -9.8724   -1.8052    0.3902 H   0  0  0  0  0  0  0  0  0  0  0  0
   -9.8162   -0.0169    0.6386 H   0  0  0  0  0  0  0  0  0  0  0  0
  -10.8273   -0.7212   -0.6286 H   0  0  0  0  0  0  0  0  0  0  0  0
   -7.9048   -1.0677    1.5398 H   0  0  0  0  0  0  0  0  0  0  0  0
   -5.5473   -1.2766    2.1234 H   0  0  0  0  0  0  0  0  0  0  0  0
   -3.2510   -1.6469    1.4473 H   0  0  0  0  0  0  0  0  0  0  0  0
   -2.8529   -1.8689   -0.2560 H   0  0  0  0  0  0  0  0  0  0  0  0
   -3.0423    0.7334    1.2162 H   0  0  0  0  0  0  0  0  0  0  0  0
   -2.1819    2.6456   -0.8762 H   0  0  0  0  0  0  0  0  0  0  0  0
   -1.4215    2.2749    0.6989 H   0  0  0  0  0  0  0  0  0  0  0  0
   -0.1340    1.8614   -1.9655 H   0  0  0  0  0  0  0  0  0  0  0  0
    2.3125    2.9506   -1.6190 H   0  0  0  0  0  0  0  0  0  0  0  0
    2.0989    1.2125   -1.8914 H   0  0  0  0  0  0  0  0  0  0  0  0
    3.5832    2.4177    0.5151 H   0  0  0  0  0  0  0  0  0  0  0  0
    4.3642    1.9298   -0.9831 H   0  0  0  0  0  0  0  0  0  0  0  0
    2.7846    0.0582    0.8721 H   0  0  0  0  0  0  0  0  0  0  0  0
    3.4873   -0.4206   -0.6630 H   0  0  0  0  0  0  0  0  0  0  0  0
    4.5311    0.4997    3.0187 H   0  0  0  0  0  0  0  0  0  0  0  0
    6.9309   -0.1456    3.3390 H   0  0  0  0  0  0  0  0  0  0  0  0
    9.1232   -1.0433    1.8260 H   0  0  0  0  0  0  0  0  0  0  0  0
    9.7520   -1.6320   -0.5083 H   0  0  0  0  0  0  0  0  0  0  0  0
    8.0961   -1.4706   -2.3339 H   0  0  0  0  0  0  0  0  0  0  0  0
    5.7797   -0.7177   -1.8718 H   0  0  0  0  0  0  0  0  0  0  0  0
   -4.4624   -0.8767   -2.0305 H   0  0  0  0  0  0  0  0  0  0  0  0
   -6.8497   -0.6673   -2.6194 H   0  0  0  0  0  0  0  0  0  0  0  0
  1  2  1  0
  2  3  1  0
  3  4  1  0
  4  5  2  0
  5  6  1  0
  6  7  1  0
  7  8  1  0
  8  9  1  0
  9 10  2  0
  9 11  1  0
 11 12  1  0
 12 13  1  0
 13 14  2  0
 13 15  1  0
 15 16  1  0
 16 17  1  0
 17 18  1  0
 18 19  2  0
 19 20  1  0
 20 21  1  0
 21 22  2  0
 22 23  1  0
 23 24  2  0
 24 25  1  0
 25 26  2  0
  6 27  2  0
 27 28  1  0
 28  3  2  0
 26 18  1  0
 26 21  1  0
  1 29  1  0
  1 30  1  0
  1 31  1  0
  4 32  1  0
  5 33  1  0
  7 34  1  0
  7 35  1  0
  8 36  1  0
 11 37  1  0
 11 38  1  0
 12 39  1  0
 15 40  1  0
 15 41  1  0
 16 42  1  0
 16 43  1  0
 17 44  1  0
 17 45  1  0
 19 46  1  0
 20 47  1  0
 22 48  1  0
 23 49  1  0
 24 50  1  0
 25 51  1  0
 27 52  1  0
 28 53  1  0
M  END
$$$$
OCNT-2313388
     RDKit          3D

 41 43  0  0  0  0  0  0  0  0999 V2000
   -0.2420    0.1689    1.6729 C   0  0  0  0  0  0  0  0  0  0  0  0
   -0.3325   -0.9394    0.7249 N   0  0  0  0  0  0  0  0  0  0  0  0
    0.6501   -1.2192   -0.2316 C   0  0  0  0  0  0  0  0  0  0  0  0
    0.4497   -2.0464   -1.1212 O   0  0  0  0  0  0  0  0  0  0  0  0
    1.9147   -0.5125   -0.1583 C   0  0  0  0  0  0  0  0  0  0  0  0
    2.4582    0.3316   -1.1015 C   0  0  0  0  0  0  0  0  0  0  0  0
    3.7591    0.8288   -0.7362 C   0  0  0  0  0  0  0  0  0  0  0  0
    4.6540    1.7165   -1.3649 C   0  0  0  0  0  0  0  0  0  0  0  0
    4.1833    2.3987   -2.8555 Cl  0  0  0  0  0  0  0  0  0  0  0  0
    5.8602    2.0041   -0.7556 C   0  0  0  0  0  0  0  0  0  0  0  0
    6.2421    1.4757    0.4245 N   0  0  0  0  0  0  0  0  0  0  0  0
    5.4093    0.6122    1.0530 C   0  0  0  0  0  0  0  0  0  0  0  0
    4.1715    0.2845    0.4869 C   0  0  0  0  0  0  0  0  0  0  0  0
    2.9915   -0.7919    1.1330 S   0  0  0  0  0  0  0  0  0  0  0  0
   -1.5973   -1.7235    0.7586 C   0  0  0  0  0  0  0  0  0  0  0  0
   -1.3525   -3.2405    0.9561 C   0  0  0  0  0  0  0  0  0  0  0  0
   -1.1203   -3.9503   -0.2543 O   0  0  0  0  0  0  0  0  0  0  0  0
   -2.5232   -1.4478   -0.4497 C   0  0  0  0  0  0  0  0  0  0  0  0
   -2.9979   -0.0135   -0.5228 C   0  0  0  0  0  0  0  0  0  0  0  0
   -4.0600    0.4279    0.2781 C   0  0  0  0  0  0  0  0  0  0  0  0
   -4.4778    1.7585    0.2257 C   0  0  0  0  0  0  0  0  0  0  0  0
   -3.8389    2.6584   -0.6255 C   0  0  0  0  0  0  0  0  0  0  0  0
   -2.7833    2.2290   -1.4275 C   0  0  0  0  0  0  0  0  0  0  0  0
   -2.3642    0.8991   -1.3774 C   0  0  0  0  0  0  0  0  0  0  0  0
   -0.0291   -0.2435    2.6633 H   0  0  0  0  0  0  0  0  0  0  0  0
   -1.1954    0.7036    1.7055 H   0  0  0  0  0  0  0  0  0  0  0  0
    0.5283    0.8926    1.4022 H   0  0  0  0  0  0  0  0  0  0  0  0
    1.9404    0.5914   -2.0184 H   0  0  0  0  0  0  0  0  0  0  0  0
    6.5730    2.6857   -1.2103 H   0  0  0  0  0  0  0  0  0  0  0  0
    5.7521    0.2009    1.9963 H   0  0  0  0  0  0  0  0  0  0  0  0
   -2.1163   -1.4002    1.6719 H   0  0  0  0  0  0  0  0  0  0  0  0
   -2.2416   -3.6903    1.4112 H   0  0  0  0  0  0  0  0  0  0  0  0
   -0.5099   -3.4191    1.6326 H   0  0  0  0  0  0  0  0  0  0  0  0
   -0.4376   -3.4523   -0.7559 H   0  0  0  0  0  0  0  0  0  0  0  0
   -3.4079   -2.0956   -0.3866 H   0  0  0  0  0  0  0  0  0  0  0  0
   -2.0360   -1.7103   -1.3959 H   0  0  0  0  0  0  0  0  0  0  0  0
   -4.5716   -0.2629    0.9443 H   0  0  0  0  0  0  0  0  0  0  0  0
   -5.3053    2.0927    0.8461 H   0  0  0  0  0  0  0  0  0  0  0  0
   -4.1678    3.6934   -0.6685 H   0  0  0  0  0  0  0  0  0  0  0  0
   -2.2889    2.9289   -2.0961 H   0  0  0  0  0  0  0  0  0  0  0  0
   -1.5404    0.5760   -2.0104 H   0  0  0  0  0  0  0  0  0  0  0  0
  1  2  1  0
  2  3  1  0
  3  4  2  0
  3  5  1  0
  5  6  2  0
  6  7  1  0
  7  8  2  0
  8  9  1  0
  8 10  1  0
 10 11  2  0
 11 12  1  0
 12 13  2  0
 13 14  1  0
  2 15  1  0
 15 16  1  0
 16 17  1  0
 15 18  1  0
 18 19  1  0
 19 20  2  0
 20 21  1  0
 21 22  2  0
 22 23  1  0
 23 24  2  0
 14  5  1  0
 24 19  1  0
 13  7  1  0
  1 25  1  0
  1 26  1  0
  1 27  1  0
  6 28  1  0
 10 29  1  0
 12 30  1  0
 15 31  1  0
 16 32  1  0
 16 33  1  0
 17 34  1  0
 18 35  1  0
 18 36  1  0
 20 37  1  0
 21 38  1  0
 22 39  1  0
 23 40  1  0
 24 41  1  0
M  END
$$$$
OCNT-2313389
     RDKit          3D

 49 52  0  0  0  0  0  0  0  0999 V2000
   -2.6760   -2.3606   -1.4608 C   0  0  0  0  0  0  0  0  0  0  0  0
   -2.8007   -1.4215   -0.2455 C   0  0  0  0  0  0  0  0  0  0  0  0
   -3.9420   -0.4474   -0.5376 C   0  0  0  0  0  0  0  0  0  0  0  0
   -5.1766   -0.5919    0.1149 C   0  0  0  0  0  0  0  0  0  0  0  0
   -6.2287    0.2861   -0.1537 C   0  0  0  0  0  0  0  0  0  0  0  0
   -6.0616    1.3159   -1.0776 C   0  0  0  0  0  0  0  0  0  0  0  0
   -4.8432    1.4700   -1.7355 C   0  0  0  0  0  0  0  0  0  0  0  0
   -3.7904    0.5936   -1.4692 C   0  0  0  0  0  0  0  0  0  0  0  0
   -1.5329   -0.7201    0.0844 N   0  0  0  0  0  0  0  0  0  0  0  0
   -0.3790   -1.6344    0.1639 C   0  0  0  0  0  0  0  0  0  0  0  0
    0.8064   -1.0757    0.9607 C   0  0  0  0  0  0  0  0  0  0  0  0
    0.8545    0.4444    0.8532 C   0  0  0  0  0  0  0  0  0  0  0  0
    1.9958    0.9746    1.5982 N   0  0  0  0  0  0  0  0  0  0  0  0
    3.2864    0.9674    1.1183 C   0  0  0  0  0  0  0  0  0  0  0  0
    3.5109    0.6549   -0.1309 N   0  0  0  0  0  0  0  0  0  0  0  0
    4.8250    0.6712   -0.4902 N   0  0  0  0  0  0  0  0  0  0  0  0
    5.9079    0.9896    0.2981 C   0  0  0  0  0  0  0  0  0  0  0  0
    7.0121    0.9085   -0.4099 N   0  0  0  0  0  0  0  0  0  0  0  0
    6.6609    0.5241   -1.6858 N   0  0  0  0  0  0  0  0  0  0  0  0
    5.3475    0.3802   -1.7218 C   0  0  0  0  0  0  0  0  0  0  0  0
    4.4813   -0.0237   -2.8414 C   0  0  0  0  0  0  0  0  0  0  0  0
    4.0924   -1.3247   -2.7234 F   0  0  0  0  0  0  0  0  0  0  0  0
    5.1236    0.0641   -4.0401 F   0  0  0  0  0  0  0  0  0  0  0  0
    5.6530    1.3298    1.6384 C   0  0  0  0  0  0  0  0  0  0  0  0
    4.3876    1.3288    2.0744 C   0  0  0  0  0  0  0  0  0  0  0  0
   -0.4463    1.0551    1.3948 C   0  0  0  0  0  0  0  0  0  0  0  0
   -1.6359    0.0921    1.3016 C   0  0  0  0  0  0  0  0  0  0  0  0
   -2.0041   -3.2006   -1.2571 H   0  0  0  0  0  0  0  0  0  0  0  0
   -2.2987   -1.8329   -2.3445 H   0  0  0  0  0  0  0  0  0  0  0  0
   -3.6494   -2.7910   -1.7253 H   0  0  0  0  0  0  0  0  0  0  0  0
   -3.0819   -2.0423    0.6168 H   0  0  0  0  0  0  0  0  0  0  0  0
   -5.3278   -1.3911    0.8366 H   0  0  0  0  0  0  0  0  0  0  0  0
   -7.1805    0.1652    0.3570 H   0  0  0  0  0  0  0  0  0  0  0  0
   -6.8814    1.9980   -1.2863 H   0  0  0  0  0  0  0  0  0  0  0  0
   -4.7109    2.2723   -2.4564 H   0  0  0  0  0  0  0  0  0  0  0  0
   -2.8415    0.7254   -1.9854 H   0  0  0  0  0  0  0  0  0  0  0  0
   -0.6601   -2.5917    0.6212 H   0  0  0  0  0  0  0  0  0  0  0  0
   -0.0364   -1.8457   -0.8562 H   0  0  0  0  0  0  0  0  0  0  0  0
    0.7137   -1.3682    2.0155 H   0  0  0  0  0  0  0  0  0  0  0  0
    1.7363   -1.5291    0.5974 H   0  0  0  0  0  0  0  0  0  0  0  0
    0.9447    0.7291   -0.2037 H   0  0  0  0  0  0  0  0  0  0  0  0
    1.8753    0.9904    2.6046 H   0  0  0  0  0  0  0  0  0  0  0  0
    3.5811    0.5938   -2.9094 H   0  0  0  0  0  0  0  0  0  0  0  0
    6.4835    1.5876    2.2849 H   0  0  0  0  0  0  0  0  0  0  0  0
    4.1297    1.5891    3.0922 H   0  0  0  0  0  0  0  0  0  0  0  0
   -0.6632    1.9682    0.8247 H   0  0  0  0  0  0  0  0  0  0  0  0
   -0.3388    1.3700    2.4406 H   0  0  0  0  0  0  0  0  0  0  0  0
   -1.6776   -0.5511    2.1908 H   0  0  0  0  0  0  0  0  0  0  0  0
   -2.5442    0.7041    1.3226 H   0  0  0  0  0  0  0  0  0  0  0  0
  1  2  1  0
  2  3  1  0
  3  4  2  0
  4  5  1  0
  5  6  2  0
  6  7  1  0
  7  8  2  0
  2  9  1  0
  9 10  1  0
 10 11  1  0
 11 12  1  0
 12 13  1  0
 13 14  1  0
 14 15  2  0
 15 16  1  0
 16 17  1  0
 17 18  2  0
 18 19  1  0
 19 20  2  0
 20 21  1  0
 21 22  1  0
 21 23  1  0
 17 24  1  0
 24 25  2  0
 12 26  1  0
 26 27  1  0
  8  3  1  0
 27  9  1  0
 25 14  1  0
 20 16  1  0
  1 28  1  0
  1 29  1  0
  1 30  1  0
  2 31  1  0
  4 32  1  0
  5 33  1  0
  6 34  1  0
  7 35  1  0
  8 36  1  0
 10 37  1  0
 10 38  1  0
 11 39  1  0
 11 40  1  0
 12 41  1  0
 13 42  1  0
 21 43  1  0
 24 44  1  0
 25 45  1  0
 26 46  1  0
 26 47  1  0
 27 48  1  0
 27 49  1  0
M  END
$$$$
OCNT-2313400
     RDKit          3D

 51 54  0  0  0  0  0  0  0  0999 V2000
   -4.3682   -0.9586    3.1419 O   0  0  0  0  0  0  0  0  0  0  0  0
   -3.7623   -0.4585    1.9430 C   0  0  0  0  0  0  0  0  0  0  0  0
   -3.9647    1.0556    1.9127 C   0  0  0  0  0  0  0  0  0  0  0  0
   -5.4392    1.4515    1.8028 C   0  0  0  0  0  0  0  0  0  0  0  0
   -6.2678    0.4957    0.9444 C   0  0  0  0  0  0  0  0  0  0  0  0
   -5.4032   -0.2870   -0.0357 C   0  0  0  0  0  0  0  0  0  0  0  0
   -4.3748   -1.1636    0.7062 C   0  0  0  0  0  0  0  0  0  0  0  0
   -3.3070   -1.6705   -0.2118 C   0  0  0  0  0  0  0  0  0  0  0  0
   -2.4899   -1.0003   -1.0972 C   0  0  0  0  0  0  0  0  0  0  0  0
   -1.6949   -1.9786   -1.6186 N   0  0  0  0  0  0  0  0  0  0  0  0
   -0.6554   -1.8488   -2.6227 C   0  0  0  0  0  0  0  0  0  0  0  0
    0.5800   -1.1891   -2.0612 C   0  0  0  0  0  0  0  0  0  0  0  0
    1.3635   -1.8430   -1.0986 C   0  0  0  0  0  0  0  0  0  0  0  0
    2.5066   -1.2335   -0.5693 C   0  0  0  0  0  0  0  0  0  0  0  0
    2.8838    0.0383   -0.9976 C   0  0  0  0  0  0  0  0  0  0  0  0
    3.9703    0.7466   -0.5664 O   0  0  0  0  0  0  0  0  0  0  0  0
    4.7795    0.1465    0.4433 C   0  0  0  0  0  0  0  0  0  0  0  0
    5.9163    1.0844    0.7613 C   0  0  0  0  0  0  0  0  0  0  0  0
    6.8376    1.4447   -0.2275 C   0  0  0  0  0  0  0  0  0  0  0  0
    7.8744    2.3008    0.1079 C   0  0  0  0  0  0  0  0  0  0  0  0
    8.0560    2.8121    1.3438 N   0  0  0  0  0  0  0  0  0  0  0  0
    7.1546    2.4564    2.2834 C   0  0  0  0  0  0  0  0  0  0  0  0
    6.0841    1.6075    2.0462 C   0  0  0  0  0  0  0  0  0  0  0  0
    2.1096    0.6906   -1.9596 C   0  0  0  0  0  0  0  0  0  0  0  0
    0.9670    0.0863   -2.4895 C   0  0  0  0  0  0  0  0  0  0  0  0
   -2.0011   -3.1821   -1.1026 N   0  0  0  0  0  0  0  0  0  0  0  0
   -2.9849   -3.0040   -0.2324 N   0  0  0  0  0  0  0  0  0  0  0  0
   -4.1294   -1.9007    3.2111 H   0  0  0  0  0  0  0  0  0  0  0  0
   -2.6896   -0.6691    2.0335 H   0  0  0  0  0  0  0  0  0  0  0  0
   -3.5493    1.5116    2.8194 H   0  0  0  0  0  0  0  0  0  0  0  0
   -3.4122    1.4765    1.0634 H   0  0  0  0  0  0  0  0  0  0  0  0
   -5.4978    2.4655    1.3886 H   0  0  0  0  0  0  0  0  0  0  0  0
   -5.8872    1.5072    2.8025 H   0  0  0  0  0  0  0  0  0  0  0  0
   -7.0376    1.0591    0.4047 H   0  0  0  0  0  0  0  0  0  0  0  0
   -6.8002   -0.2087    1.5959 H   0  0  0  0  0  0  0  0  0  0  0  0
   -6.0382   -0.9224   -0.6658 H   0  0  0  0  0  0  0  0  0  0  0  0
   -4.9094    0.4192   -0.7154 H   0  0  0  0  0  0  0  0  0  0  0  0
   -4.9242   -2.0467    1.0644 H   0  0  0  0  0  0  0  0  0  0  0  0
   -2.4006    0.0387   -1.3774 H   0  0  0  0  0  0  0  0  0  0  0  0
   -0.4124   -2.8457   -3.0083 H   0  0  0  0  0  0  0  0  0  0  0  0
   -1.0808   -1.2697   -3.4504 H   0  0  0  0  0  0  0  0  0  0  0  0
    1.0836   -2.8358   -0.7461 H   0  0  0  0  0  0  0  0  0  0  0  0
    3.0737   -1.7828    0.1748 H   0  0  0  0  0  0  0  0  0  0  0  0
    5.2025   -0.8025    0.0905 H   0  0  0  0  0  0  0  0  0  0  0  0
    4.1807   -0.0343    1.3446 H   0  0  0  0  0  0  0  0  0  0  0  0
    6.7451    1.0722   -1.2427 H   0  0  0  0  0  0  0  0  0  0  0  0
    8.6079    2.6072   -0.6323 H   0  0  0  0  0  0  0  0  0  0  0  0
    7.3196    2.8862    3.2674 H   0  0  0  0  0  0  0  0  0  0  0  0
    5.3978    1.3680    2.8515 H   0  0  0  0  0  0  0  0  0  0  0  0
    2.4002    1.6827   -2.2985 H   0  0  0  0  0  0  0  0  0  0  0  0
    0.3878    0.6247   -3.2365 H   0  0  0  0  0  0  0  0  0  0  0  0
  1  2  1  0
  2  3  1  0
  3  4  1  0
  4  5  1  0
  5  6  1  0
  6  7  1  0
  7  8  1  0
  8  9  2  0
  9 10  1  0
 10 11  1  0
 11 12  1  0
 12 13  1  0
 13 14  2  0
 14 15  1  0
 15 16  1  0
 16 17  1  0
 17 18  1  0
 18 19  2  0
 19 20  1  0
 20 21  2  0
 21 22  1  0
 22 23  2  0
 15 24  2  0
 24 25  1  0
 10 26  1  0
 26 27  2  0
  7  2  1  0
 27  8  1  0
 25 12  2  0
 23 18  1  0
  1 28  1  0
  2 29  1  0
  3 30  1  0
  3 31  1  0
  4 32  1  0
  4 33  1  0
  5 34  1  0
  5 35  1  0
  6 36  1  0
  6 37  1  0
  7 38  1  0
  9 39  1  0
 11 40  1  0
 11 41  1  0
 13 42  1  0
 14 43  1  0
 17 44  1  0
 17 45  1  0
 19 46  1  0
 20 47  1  0
 22 48  1  0
 23 49  1  0
 24 50  1  0
 25 51  1  0
M  END
$$$$
OCNT-2313402
     RDKit          3D

 41 43  0  0  0  0  0  0  0  0999 V2000
   -2.8546   -1.9566    0.2789 C   0  0  0  0  0  0  0  0  0  0  0  0
   -2.3867   -0.7613   -0.5619 C   0  0  0  0  0  0  0  0  0  0  0  0
   -1.1474   -0.0829    0.0457 C   0  0  0  0  0  0  0  0  0  0  0  0
    0.1210   -0.8990   -0.1198 C   0  0  0  0  0  0  0  0  0  0  0  0
    0.1945   -1.9255   -0.7842 O   0  0  0  0  0  0  0  0  0  0  0  0
    1.1994   -0.3505    0.5491 N   0  0  0  0  0  0  0  0  0  0  0  0
    2.5363   -0.9214    0.4298 C   0  0  0  0  0  0  0  0  0  0  0  0
    3.3973   -0.5368    1.6460 C   0  0  0  0  0  0  0  0  0  0  0  0
    4.2371    0.7121    1.3887 C   0  0  0  0  0  0  0  0  0  0  0  0
    5.1345    0.5062    0.2025 C   0  0  0  0  0  0  0  0  0  0  0  0
    4.6916   -0.4714   -0.8469 C   0  0  0  0  0  0  0  0  0  0  0  0
    3.1685   -0.5147   -0.9158 C   0  0  0  0  0  0  0  0  0  0  0  0
    6.5747    0.7142    0.3789 N   0  0  0  0  0  0  0  0  0  0  0  0
    5.9804    1.6305   -0.2107 N   0  0  0  0  0  0  0  0  0  0  0  0
   -3.5152    0.2482   -0.7349 C   0  0  0  0  0  0  0  0  0  0  0  0
   -4.1015    0.8960    0.3663 C   0  0  0  0  0  0  0  0  0  0  0  0
   -5.1289    1.8225    0.1796 C   0  0  0  0  0  0  0  0  0  0  0  0
   -5.5726    2.1054   -1.1057 C   0  0  0  0  0  0  0  0  0  0  0  0
   -6.5578    2.9955   -1.2828 F   0  0  0  0  0  0  0  0  0  0  0  0
   -5.0089    1.4790   -2.2094 C   0  0  0  0  0  0  0  0  0  0  0  0
   -3.9817    0.5519   -2.0253 C   0  0  0  0  0  0  0  0  0  0  0  0
   -2.0866   -2.7352    0.3220 H   0  0  0  0  0  0  0  0  0  0  0  0
   -3.7566   -2.4061   -0.1517 H   0  0  0  0  0  0  0  0  0  0  0  0
   -3.0877   -1.6665    1.3091 H   0  0  0  0  0  0  0  0  0  0  0  0
   -2.1228   -1.1509   -1.5543 H   0  0  0  0  0  0  0  0  0  0  0  0
   -0.9682    0.8804   -0.4501 H   0  0  0  0  0  0  0  0  0  0  0  0
   -1.2987    0.1175    1.1137 H   0  0  0  0  0  0  0  0  0  0  0  0
    1.1068    0.5975    0.8934 H   0  0  0  0  0  0  0  0  0  0  0  0
    2.4189   -2.0129    0.4421 H   0  0  0  0  0  0  0  0  0  0  0  0
    2.7769   -0.3969    2.5392 H   0  0  0  0  0  0  0  0  0  0  0  0
    4.0792   -1.3693    1.8657 H   0  0  0  0  0  0  0  0  0  0  0  0
    3.5803    1.5714    1.2075 H   0  0  0  0  0  0  0  0  0  0  0  0
    4.8277    0.9402    2.2840 H   0  0  0  0  0  0  0  0  0  0  0  0
    5.0911   -0.1940   -1.8296 H   0  0  0  0  0  0  0  0  0  0  0  0
    5.0826   -1.4681   -0.6094 H   0  0  0  0  0  0  0  0  0  0  0  0
    2.8480   -1.2104   -1.7004 H   0  0  0  0  0  0  0  0  0  0  0  0
    2.8025    0.4766   -1.2168 H   0  0  0  0  0  0  0  0  0  0  0  0
   -3.7664    0.6827    1.3786 H   0  0  0  0  0  0  0  0  0  0  0  0
   -5.5862    2.3229    1.0270 H   0  0  0  0  0  0  0  0  0  0  0  0
   -5.3721    1.7140   -3.2046 H   0  0  0  0  0  0  0  0  0  0  0  0
   -3.5486    0.0659   -2.8976 H   0  0  0  0  0  0  0  0  0  0  0  0
  1  2  1  0
  2  3  1  0
  3  4  1  0
  4  5  2  0
  4  6  1  0
  6  7  1  0
  7  8  1  0
  8  9  1  0
  9 10  1  0
 10 11  1  0
 11 12  1  0
 10 13  1  0
 13 14  2  0
  2 15  1  0
 15 16  1  0
 16 17  2  0
 17 18  1  0
 18 19  1  0
 18 20  2  0
 20 21  1  0
 12  7  1  0
 21 15  2  0
 14 10  1  0
  1 22  1  0
  1 23  1  0
  1 24  1  0
  2 25  1  0
  3 26  1  0
  3 27  1  0
  6 28  1  0
  7 29  1  0
  8 30  1  0
  8 31  1  0
  9 32  1  0
  9 33  1  0
 11 34  1  0
 11 35  1  0
 12 36  1  0
 12 37  1  0
 16 38  1  0
 17 39  1  0
 20 40  1  0
 21 41  1  0
M  END
$$$$
OCNT-2313423
     RDKit          3D

 49 51  0  0  0  0  0  0  0  0999 V2000
   -6.7277    0.9004    0.3260 C   0  0  0  0  0  0  0  0  0  0  0  0
   -6.1674    0.2417   -0.9245 C   0  0  0  0  0  0  0  0  0  0  0  0
   -4.9598   -0.6770   -0.6914 C   0  0  0  0  0  0  0  0  0  0  0  0
   -3.6917    0.0209   -0.4888 N   0  0  0  0  0  0  0  0  0  0  0  0
   -3.5391    0.6772    0.8245 C   0  0  0  0  0  0  0  0  0  0  0  0
   -2.0897    0.5297    1.1677 C   0  0  0  0  0  0  0  0  0  0  0  0
   -1.3687    1.1408    2.1802 C   0  0  0  0  0  0  0  0  0  0  0  0
   -0.0174    0.8187    2.3144 C   0  0  0  0  0  0  0  0  0  0  0  0
    0.5838   -0.1099    1.4491 C   0  0  0  0  0  0  0  0  0  0  0  0
   -0.1614   -0.7293    0.4418 C   0  0  0  0  0  0  0  0  0  0  0  0
    0.4676   -1.6574   -0.4302 N   0  0  0  0  0  0  0  0  0  0  0  0
    1.2427   -1.0653   -1.8098 S   0  0  0  0  0  0  0  0  0  0  0  0
    1.5254   -2.2139   -2.6440 O   0  0  0  0  0  0  0  0  0  0  0  0
    0.4865    0.0507   -2.3355 O   0  0  0  0  0  0  0  0  0  0  0  0
    2.7950   -0.4577   -1.1735 C   0  0  0  0  0  0  0  0  0  0  0  0
    2.9881    0.9339   -1.1621 C   0  0  0  0  0  0  0  0  0  0  0  0
    4.1832    1.4840   -0.6909 C   0  0  0  0  0  0  0  0  0  0  0  0
    5.2001    0.6485   -0.2354 C   0  0  0  0  0  0  0  0  0  0  0  0
    6.4122    1.0624    0.2473 O   0  0  0  0  0  0  0  0  0  0  0  0
    6.6768    2.4590    0.2339 C   0  0  0  0  0  0  0  0  0  0  0  0
    4.9968   -0.7393   -0.2573 C   0  0  0  0  0  0  0  0  0  0  0  0
    5.9832   -1.5423    0.1772 F   0  0  0  0  0  0  0  0  0  0  0  0
    3.8034   -1.3213   -0.7135 C   0  0  0  0  0  0  0  0  0  0  0  0
    3.6893   -2.8182   -0.7226 C   0  0  0  0  0  0  0  0  0  0  0  0
   -1.4955   -0.3889    0.3021 C   0  0  0  0  0  0  0  0  0  0  0  0
   -2.5261   -0.8812   -0.6612 C   0  0  0  0  0  0  0  0  0  0  0  0
   -7.6879    1.3749    0.0978 H   0  0  0  0  0  0  0  0  0  0  0  0
   -6.8962    0.1649    1.1187 H   0  0  0  0  0  0  0  0  0  0  0  0
   -6.0669    1.6816    0.7073 H   0  0  0  0  0  0  0  0  0  0  0  0
   -6.9673   -0.3661   -1.3666 H   0  0  0  0  0  0  0  0  0  0  0  0
   -5.9209    1.0101   -1.6671 H   0  0  0  0  0  0  0  0  0  0  0  0
   -5.1652   -1.3788    0.1271 H   0  0  0  0  0  0  0  0  0  0  0  0
   -4.8666   -1.2854   -1.6013 H   0  0  0  0  0  0  0  0  0  0  0  0
   -4.1335    0.1896    1.6057 H   0  0  0  0  0  0  0  0  0  0  0  0
   -3.8039    1.7358    0.7500 H   0  0  0  0  0  0  0  0  0  0  0  0
   -1.8378    1.8534    2.8514 H   0  0  0  0  0  0  0  0  0  0  0  0
    0.5747    1.2845    3.0987 H   0  0  0  0  0  0  0  0  0  0  0  0
    1.6328   -0.3562    1.5899 H   0  0  0  0  0  0  0  0  0  0  0  0
   -0.0218   -2.5279   -0.6315 H   0  0  0  0  0  0  0  0  0  0  0  0
    2.2068    1.6049   -1.5185 H   0  0  0  0  0  0  0  0  0  0  0  0
    4.2851    2.5645   -0.6978 H   0  0  0  0  0  0  0  0  0  0  0  0
    5.9817    2.9977    0.8862 H   0  0  0  0  0  0  0  0  0  0  0  0
    7.6870    2.6118    0.6258 H   0  0  0  0  0  0  0  0  0  0  0  0
    6.6515    2.8566   -0.7861 H   0  0  0  0  0  0  0  0  0  0  0  0
    3.8122   -3.2011   -1.7401 H   0  0  0  0  0  0  0  0  0  0  0  0
    2.7300   -3.1478   -0.3154 H   0  0  0  0  0  0  0  0  0  0  0  0
    4.4587   -3.2849   -0.0982 H   0  0  0  0  0  0  0  0  0  0  0  0
   -2.7717   -1.9195   -0.4067 H   0  0  0  0  0  0  0  0  0  0  0  0
   -2.1707   -0.8289   -1.6944 H   0  0  0  0  0  0  0  0  0  0  0  0
  1  2  1  0
  2  3  1  0
  3  4  1  0
  4  5  1  0
  5  6  1  0
  6  7  2  0
  7  8  1  0
  8  9  2  0
  9 10  1  0
 10 11  1  0
 11 12  1  0
 12 13  2  0
 12 14  2  0
 12 15  1  0
 15 16  1  0
 16 17  2  0
 17 18  1  0
 18 19  1  0
 19 20  1  0
 18 21  2  0
 21 22  1  0
 21 23  1  0
 23 24  1  0
 10 25  2  0
 25 26  1  0
 26  4  1  0
 25  6  1  0
 23 15  2  0
  1 27  1  0
  1 28  1  0
  1 29  1  0
  2 30  1  0
  2 31  1  0
  3 32  1  0
  3 33  1  0
  5 34  1  0
  5 35  1  0
  7 36  1  0
  8 37  1  0
  9 38  1  0
 11 39  1  0
 16 40  1  0
 17 41  1  0
 20 42  1  0
 20 43  1  0
 20 44  1  0
 24 45  1  0
 24 46  1  0
 24 47  1  0
 26 48  1  0
 26 49  1  0
M  END
$$$$
OCNT-2313433
     RDKit          3D

 43 46  0  0  0  0  0  0  0  0999 V2000
    7.1402    3.1980    0.2631 Cl  0  0  0  0  0  0  0  0  0  0  0  0
    5.8378    2.0802    0.1555 C   0  0  0  0  0  0  0  0  0  0  0  0
    4.7007    2.4069   -0.5752 C   0  0  0  0  0  0  0  0  0  0  0  0
    3.6415    1.4951   -0.6633 C   0  0  0  0  0  0  0  0  0  0  0  0
    3.6897    0.2614   -0.0023 C   0  0  0  0  0  0  0  0  0  0  0  0
    2.6964   -0.7184   -0.1086 N   0  0  0  0  0  0  0  0  0  0  0  0
    1.3515   -0.3418   -0.5471 C   0  0  0  0  0  0  0  0  0  0  0  0
    0.4116   -1.5618   -0.5111 C   0  0  0  0  0  0  0  0  0  0  0  0
    0.1862   -2.0610    0.9336 C   0  0  0  0  0  0  0  0  0  0  0  0
   -1.2272   -2.5963    1.1275 C   0  0  0  0  0  0  0  0  0  0  0  0
   -2.2775   -1.5200    0.8291 C   0  0  0  0  0  0  0  0  0  0  0  0
   -1.8376   -0.6144   -0.2514 N   0  0  0  0  0  0  0  0  0  0  0  0
   -2.9429   -0.0077   -0.8704 C   0  0  0  0  0  0  0  0  0  0  0  0
   -3.3456   -0.3546   -2.1145 N   0  0  0  0  0  0  0  0  0  0  0  0
   -4.4239    0.2585   -2.6496 C   0  0  0  0  0  0  0  0  0  0  0  0
   -5.1881    1.2135   -2.1070 N   0  0  0  0  0  0  0  0  0  0  0  0
   -4.7641    1.5716   -0.8835 C   0  0  0  0  0  0  0  0  0  0  0  0
   -3.6745    0.9972   -0.2585 C   0  0  0  0  0  0  0  0  0  0  0  0
   -3.5683    1.6642    0.9301 N   0  0  0  0  0  0  0  0  0  0  0  0
   -4.5871    2.5738    0.9876 C   0  0  0  0  0  0  0  0  0  0  0  0
   -5.3322    2.5378   -0.0951 N   0  0  0  0  0  0  0  0  0  0  0  0
   -0.9195   -1.2330   -1.2175 C   0  0  0  0  0  0  0  0  0  0  0  0
    4.8654   -0.0583    0.6955 C   0  0  0  0  0  0  0  0  0  0  0  0
    5.9285    0.8460    0.7881 C   0  0  0  0  0  0  0  0  0  0  0  0
    4.6310    3.3619   -1.0887 H   0  0  0  0  0  0  0  0  0  0  0  0
    2.7814    1.7767   -1.2630 H   0  0  0  0  0  0  0  0  0  0  0  0
    2.7016   -1.3338    0.7010 H   0  0  0  0  0  0  0  0  0  0  0  0
    1.4039    0.0289   -1.5777 H   0  0  0  0  0  0  0  0  0  0  0  0
    0.9530    0.4606    0.0863 H   0  0  0  0  0  0  0  0  0  0  0  0
    0.8886   -2.3693   -1.0839 H   0  0  0  0  0  0  0  0  0  0  0  0
    0.3555   -1.2510    1.6546 H   0  0  0  0  0  0  0  0  0  0  0  0
    0.9151   -2.8454    1.1692 H   0  0  0  0  0  0  0  0  0  0  0  0
   -1.3817   -3.4555    0.4623 H   0  0  0  0  0  0  0  0  0  0  0  0
   -1.3600   -2.9681    2.1497 H   0  0  0  0  0  0  0  0  0  0  0  0
   -2.4380   -0.9269    1.7375 H   0  0  0  0  0  0  0  0  0  0  0  0
   -3.2261   -2.0188    0.5887 H   0  0  0  0  0  0  0  0  0  0  0  0
   -4.7059   -0.0666   -3.6465 H   0  0  0  0  0  0  0  0  0  0  0  0
   -2.8476    1.5187    1.6225 H   0  0  0  0  0  0  0  0  0  0  0  0
   -4.7316    3.2333    1.8334 H   0  0  0  0  0  0  0  0  0  0  0  0
   -0.7283   -0.5701   -2.0716 H   0  0  0  0  0  0  0  0  0  0  0  0
   -1.3584   -2.1563   -1.6211 H   0  0  0  0  0  0  0  0  0  0  0  0
    4.9656   -1.0290    1.1755 H   0  0  0  0  0  0  0  0  0  0  0  0
    6.8210    0.5738    1.3442 H   0  0  0  0  0  0  0  0  0  0  0  0
  1  2  1  0
  2  3  1  0
  3  4  2  0
  4  5  1  0
  5  6  1  0
  6  7  1  0
  7  8  1  0
  8  9  1  0
  9 10  1  0
 10 11  1  0
 11 12  1  0
 12 13  1  0
 13 14  1  0
 14 15  2  0
 15 16  1  0
 16 17  2  0
 17 18  1  0
 18 19  1  0
 19 20  1  0
 20 21  2  0
 12 22  1  0
  5 23  2  0
 23 24  1  0
 24  2  2  0
 22  8  1  0
 18 13  2  0
 21 17  1  0
  3 25  1  0
  4 26  1  0
  6 27  1  0
  7 28  1  0
  7 29  1  0
  8 30  1  0
  9 31  1  0
  9 32  1  0
 10 33  1  0
 10 34  1  0
 11 35  1  0
 11 36  1  0
 15 37  1  0
 19 38  1  0
 20 39  1  0
 22 40  1  0
 22 41  1  0
 23 42  1  0
 24 43  1  0
M  END
$$$$
OCNT-2313460
     RDKit          3D

 38 40  0  0  0  0  0  0  0  0999 V2000
   -1.8322   -1.9388    0.9531 C   0  0  0  0  0  0  0  0  0  0  0  0
   -1.0462   -0.6545    0.5982 C   0  0  0  0  0  0  0  0  0  0  0  0
   -1.2446    0.3768    1.7293 C   0  0  0  0  0  0  0  0  0  0  0  0
   -0.6163   -0.0544    2.9333 O   0  0  0  0  0  0  0  0  0  0  0  0
    0.4480   -1.0752    0.4656 C   0  0  0  0  0  0  0  0  0  0  0  0
    1.3163    0.0800    0.2344 N   0  0  0  0  0  0  0  0  0  0  0  0
    2.6276   -0.2231   -0.1570 C   0  0  0  0  0  0  0  0  0  0  0  0
    2.9028   -1.3962   -0.7713 N   0  0  0  0  0  0  0  0  0  0  0  0
    4.1657   -1.6586   -1.1429 C   0  0  0  0  0  0  0  0  0  0  0  0
    5.2419   -0.8856   -0.9829 N   0  0  0  0  0  0  0  0  0  0  0  0
    4.9407    0.2776   -0.3838 C   0  0  0  0  0  0  0  0  0  0  0  0
    3.6885    0.6850    0.0497 C   0  0  0  0  0  0  0  0  0  0  0  0
    3.7587    1.9999    0.6294 C   0  0  0  0  0  0  0  0  0  0  0  0
    5.0356    2.5176    0.6216 C   0  0  0  0  0  0  0  0  0  0  0  0
    6.1561    1.4358   -0.0829 S   0  0  0  0  0  0  0  0  0  0  0  0
   -1.5161   -0.0785   -0.7695 C   0  0  0  0  0  0  0  0  0  0  0  0
   -2.9687    0.3195   -0.8453 C   0  0  0  0  0  0  0  0  0  0  0  0
   -4.0575   -0.4732   -1.1543 C   0  0  0  0  0  0  0  0  0  0  0  0
   -5.2812    0.2558   -1.1518 C   0  0  0  0  0  0  0  0  0  0  0  0
   -5.0864    1.5869   -0.8620 C   0  0  0  0  0  0  0  0  0  0  0  0
   -3.4375    1.9524   -0.6030 S   0  0  0  0  0  0  0  0  0  0  0  0
   -1.7913   -2.6658    0.1341 H   0  0  0  0  0  0  0  0  0  0  0  0
   -1.4198   -2.4242    1.8452 H   0  0  0  0  0  0  0  0  0  0  0  0
   -2.8852   -1.7268    1.1643 H   0  0  0  0  0  0  0  0  0  0  0  0
   -2.3082    0.5196    1.9486 H   0  0  0  0  0  0  0  0  0  0  0  0
   -0.8213    1.3509    1.4624 H   0  0  0  0  0  0  0  0  0  0  0  0
   -0.9123    0.5481    3.6386 H   0  0  0  0  0  0  0  0  0  0  0  0
    0.5220   -1.7911   -0.3640 H   0  0  0  0  0  0  0  0  0  0  0  0
    0.7839   -1.5978    1.3707 H   0  0  0  0  0  0  0  0  0  0  0  0
    1.3335    0.7116    1.0300 H   0  0  0  0  0  0  0  0  0  0  0  0
    4.3297   -2.6147   -1.6303 H   0  0  0  0  0  0  0  0  0  0  0  0
    2.9072    2.5382    1.0264 H   0  0  0  0  0  0  0  0  0  0  0  0
    5.3657    3.4788    0.9917 H   0  0  0  0  0  0  0  0  0  0  0  0
   -0.8973    0.7872   -1.0412 H   0  0  0  0  0  0  0  0  0  0  0  0
   -1.3343   -0.8242   -1.5565 H   0  0  0  0  0  0  0  0  0  0  0  0
   -3.9812   -1.5325   -1.3701 H   0  0  0  0  0  0  0  0  0  0  0  0
   -6.2536   -0.1732   -1.3599 H   0  0  0  0  0  0  0  0  0  0  0  0
   -5.8326    2.3670   -0.7995 H   0  0  0  0  0  0  0  0  0  0  0  0
  1  2  1  0
  2  3  1  0
  3  4  1  0
  2  5  1  0
  5  6  1  0
  6  7  1  0
  7  8  1  0
  8  9  2  0
  9 10  1  0
 10 11  2  0
 11 12  1  0
 12 13  1  0
 13 14  2  0
 14 15  1  0
  2 16  1  0
 16 17  1  0
 17 18  2  0
 18 19  1  0
 19 20  2  0
 20 21  1  0
 12  7  2  0
 21 17  1  0
 15 11  1  0
  1 22  1  0
  1 23  1  0
  1 24  1  0
  3 25  1  0
  3 26  1  0
  4 27  1  0
  5 28  1  0
  5 29  1  0
  6 30  1  0
  9 31  1  0
 13 32  1  0
 14 33  1  0
 16 34  1  0
 16 35  1  0
 18 36  1  0
 19 37  1  0
 20 38  1  0
M  END
$$$$
OCNT-2313465
     RDKit          3D

 39 41  0  0  0  0  0  0  0  0999 V2000
   -0.9470    0.4061    2.5819 O   0  0  0  0  0  0  0  0  0  0  0  0
   -1.1987    0.2697    1.3861 C   0  0  0  0  0  0  0  0  0  0  0  0
   -0.1751    0.1791    0.4611 N   0  0  0  0  0  0  0  0  0  0  0  0
    1.2175    0.1455    0.8845 C   0  0  0  0  0  0  0  0  0  0  0  0
    2.2225    0.2225   -0.2930 C   0  0  0  0  0  0  0  0  0  0  0  0
    1.7402   -0.7496   -1.2712 O   0  0  0  0  0  0  0  0  0  0  0  0
    3.6522   -0.1812    0.1002 C   0  0  0  0  0  0  0  0  0  0  0  0
    4.5643   -0.5665   -0.9035 C   0  0  0  0  0  0  0  0  0  0  0  0
    5.8737   -0.9349   -0.5895 C   0  0  0  0  0  0  0  0  0  0  0  0
    6.3022   -0.9189    0.7333 C   0  0  0  0  0  0  0  0  0  0  0  0
    5.4242   -0.5275    1.7397 C   0  0  0  0  0  0  0  0  0  0  0  0
    4.1126   -0.1573    1.4278 C   0  0  0  0  0  0  0  0  0  0  0  0
    2.2106    1.6672   -0.8670 C   0  0  0  0  0  0  0  0  0  0  0  0
    2.5759    2.5791    0.0660 F   0  0  0  0  0  0  0  0  0  0  0  0
    0.9801    2.0243   -1.3118 F   0  0  0  0  0  0  0  0  0  0  0  0
    3.0551    1.8069   -1.9184 F   0  0  0  0  0  0  0  0  0  0  0  0
   -2.5398    0.1680    0.8284 C   0  0  0  0  0  0  0  0  0  0  0  0
   -2.9704    0.2930   -0.4788 C   0  0  0  0  0  0  0  0  0  0  0  0
   -4.3876    0.1190   -0.6326 C   0  0  0  0  0  0  0  0  0  0  0  0
   -5.2004    0.1670   -1.7908 C   0  0  0  0  0  0  0  0  0  0  0  0
   -6.5806   -0.0353   -1.6953 C   0  0  0  0  0  0  0  0  0  0  0  0
   -7.1683   -0.2836   -0.4627 C   0  0  0  0  0  0  0  0  0  0  0  0
   -6.3914   -0.3334    0.6969 C   0  0  0  0  0  0  0  0  0  0  0  0
   -5.0015   -0.1291    0.5956 C   0  0  0  0  0  0  0  0  0  0  0  0
   -3.8559   -0.1369    1.8776 S   0  0  0  0  0  0  0  0  0  0  0  0
   -0.3831   -0.1879   -0.4607 H   0  0  0  0  0  0  0  0  0  0  0  0
    1.3300   -0.8119    1.4101 H   0  0  0  0  0  0  0  0  0  0  0  0
    1.3828    0.9443    1.6171 H   0  0  0  0  0  0  0  0  0  0  0  0
    2.1282   -1.6114   -1.0317 H   0  0  0  0  0  0  0  0  0  0  0  0
    4.2627   -0.5717   -1.9513 H   0  0  0  0  0  0  0  0  0  0  0  0
    6.5609   -1.2267   -1.3801 H   0  0  0  0  0  0  0  0  0  0  0  0
    7.3226   -1.2015    0.9796 H   0  0  0  0  0  0  0  0  0  0  0  0
    5.7631   -0.5031    2.7731 H   0  0  0  0  0  0  0  0  0  0  0  0
    3.4744    0.1565    2.2514 H   0  0  0  0  0  0  0  0  0  0  0  0
   -2.3127    0.5161   -1.3099 H   0  0  0  0  0  0  0  0  0  0  0  0
   -4.7526    0.3628   -2.7619 H   0  0  0  0  0  0  0  0  0  0  0  0
   -7.1947    0.0040   -2.5917 H   0  0  0  0  0  0  0  0  0  0  0  0
   -8.2427   -0.4386   -0.3957 H   0  0  0  0  0  0  0  0  0  0  0  0
   -6.8536   -0.5241    1.6615 H   0  0  0  0  0  0  0  0  0  0  0  0
  1  2  2  0
  2  3  1  0
  3  4  1  0
  4  5  1  0
  5  6  1  0
  5  7  1  0
  7  8  2  0
  8  9  1  0
  9 10  2  0
 10 11  1  0
 11 12  2  0
  5 13  1  0
 13 14  1  0
 13 15  1  0
 13 16  1  0
  2 17  1  0
 17 18  2  0
 18 19  1  0
 19 20  2  0
 20 21  1  0
 21 22  2  0
 22 23  1  0
 23 24  2  0
 24 25  1  0
 12  7  1  0
 25 17  1  0
 24 19  1  0
  3 26  1  0
  4 27  1  0
  4 28  1  0
  6 29  1  0
  8 30  1  0
  9 31  1  0
 10 32  1  0
 11 33  1  0
 12 34  1  0
 18 35  1  0
 20 36  1  0
 21 37  1  0
 22 38  1  0
 23 39  1  0
M  END
$$$$
OCNT-2313489
     RDKit          3D

 43 44  0  0  0  0  0  0  0  0999 V2000
    3.2800    3.5386   -1.8899 C   0  0  0  0  0  0  0  0  0  0  0  0
    2.7435    2.2327   -1.3847 C   0  0  0  0  0  0  0  0  0  0  0  0
    3.0446    1.0381   -2.0439 C   0  0  0  0  0  0  0  0  0  0  0  0
    2.5142   -0.1727   -1.5913 C   0  0  0  0  0  0  0  0  0  0  0  0
    1.6553   -0.2193   -0.4793 C   0  0  0  0  0  0  0  0  0  0  0  0
    1.0897   -1.5782   -0.0421 C   0  0  0  0  0  0  0  0  0  0  0  0
   -0.2839   -1.4959    0.6908 C   0  0  0  0  0  0  0  0  0  0  0  0
   -1.3239   -0.8368   -0.0959 N   0  0  0  0  0  0  0  0  0  0  0  0
   -2.6320   -0.8114    0.3588 C   0  0  0  0  0  0  0  0  0  0  0  0
   -2.9970   -1.5278    1.2949 O   0  0  0  0  0  0  0  0  0  0  0  0
   -3.5723    0.1145   -0.4179 C   0  0  0  0  0  0  0  0  0  0  0  0
   -5.0394    0.2832    0.0609 C   0  0  0  0  0  0  0  0  0  0  0  0
   -5.0242    1.7942   -0.2473 C   0  0  0  0  0  0  0  0  0  0  0  0
   -3.2718    1.8110   -0.0136 S   0  0  0  0  0  0  0  0  0  0  0  0
   -2.9206    2.0220    1.3743 O   0  0  0  0  0  0  0  0  0  0  0  0
   -2.5953    2.4890   -1.0999 O   0  0  0  0  0  0  0  0  0  0  0  0
    2.1371   -2.3769    0.6412 N   0  0  0  0  0  0  0  0  0  0  0  0
    1.8320   -3.8066    0.6460 C   0  0  0  0  0  0  0  0  0  0  0  0
    2.4416   -1.9170    1.9953 C   0  0  0  0  0  0  0  0  0  0  0  0
    1.3666    0.9849    0.1812 C   0  0  0  0  0  0  0  0  0  0  0  0
    1.8937    2.1971   -0.2752 C   0  0  0  0  0  0  0  0  0  0  0  0
    2.5852    3.9730   -2.6151 H   0  0  0  0  0  0  0  0  0  0  0  0
    3.4222    4.2471   -1.0670 H   0  0  0  0  0  0  0  0  0  0  0  0
    4.2540    3.4012   -2.3713 H   0  0  0  0  0  0  0  0  0  0  0  0
    3.6992    1.0390   -2.9123 H   0  0  0  0  0  0  0  0  0  0  0  0
    2.7796   -1.0920   -2.1103 H   0  0  0  0  0  0  0  0  0  0  0  0
    0.8685   -2.0876   -0.9932 H   0  0  0  0  0  0  0  0  0  0  0  0
   -0.6502   -2.5019    0.9233 H   0  0  0  0  0  0  0  0  0  0  0  0
   -0.2082   -0.9575    1.6422 H   0  0  0  0  0  0  0  0  0  0  0  0
   -1.0208   -0.1207   -0.7507 H   0  0  0  0  0  0  0  0  0  0  0  0
   -3.5053   -0.0492   -1.5017 H   0  0  0  0  0  0  0  0  0  0  0  0
   -5.1960    0.0614    1.1241 H   0  0  0  0  0  0  0  0  0  0  0  0
   -5.7770   -0.2896   -0.5098 H   0  0  0  0  0  0  0  0  0  0  0  0
   -5.3091    2.0545   -1.2715 H   0  0  0  0  0  0  0  0  0  0  0  0
   -5.5756    2.4206    0.4580 H   0  0  0  0  0  0  0  0  0  0  0  0
    1.6441   -4.1693   -0.3706 H   0  0  0  0  0  0  0  0  0  0  0  0
    2.6891   -4.3765    1.0226 H   0  0  0  0  0  0  0  0  0  0  0  0
    0.9652   -4.0524    1.2681 H   0  0  0  0  0  0  0  0  0  0  0  0
    1.5993   -2.0484    2.6830 H   0  0  0  0  0  0  0  0  0  0  0  0
    3.2932   -2.4758    2.4007 H   0  0  0  0  0  0  0  0  0  0  0  0
    2.7394   -0.8641    2.0072 H   0  0  0  0  0  0  0  0  0  0  0  0
    0.7293    1.0095    1.0616 H   0  0  0  0  0  0  0  0  0  0  0  0
    1.6362    3.1160    0.2479 H   0  0  0  0  0  0  0  0  0  0  0  0
  1  2  1  0
  2  3  1  0
  3  4  2  0
  4  5  1  0
  5  6  1  0
  6  7  1  0
  7  8  1  0
  8  9  1  0
  9 10  2  0
  9 11  1  0
 11 12  1  0
 12 13  1  0
 13 14  1  0
 14 15  2  0
 14 16  2  0
  6 17  1  0
 17 18  1  0
 17 19  1  0
  5 20  2  0
 20 21  1  0
 21  2  2  0
 14 11  1  0
  1 22  1  0
  1 23  1  0
  1 24  1  0
  3 25  1  0
  4 26  1  0
  6 27  1  0
  7 28  1  0
  7 29  1  0
  8 30  1  0
 11 31  1  0
 12 32  1  0
 12 33  1  0
 13 34  1  0
 13 35  1  0
 18 36  1  0
 18 37  1  0
 18 38  1  0
 19 39  1  0
 19 40  1  0
 19 41  1  0
 20 42  1  0
 21 43  1  0
M  END
$$$$
OCNT-2313504
     RDKit          3D

 33 36  0  0  0  0  0  0  0  0999 V2000
    4.7714   -0.9020   -1.6774 C   0  0  0  0  0  0  0  0  0  0  0  0
    3.6608   -0.0681   -1.6371 C   0  0  0  0  0  0  0  0  0  0  0  0
    2.8662   -0.0205   -0.4839 C   0  0  0  0  0  0  0  0  0  0  0  0
    1.7336    0.8103   -0.3990 C   0  0  0  0  0  0  0  0  0  0  0  0
    0.9510    0.8440    0.7634 C   0  0  0  0  0  0  0  0  0  0  0  0
   -0.2602    1.7423    0.8543 C   0  0  0  0  0  0  0  0  0  0  0  0
   -1.2882    1.3294   -0.0861 N   0  0  0  0  0  0  0  0  0  0  0  0
   -2.2477    0.4219    0.3606 C   0  0  0  0  0  0  0  0  0  0  0  0
   -3.4404    0.1974   -0.3605 C   0  0  0  0  0  0  0  0  0  0  0  0
   -3.9600    0.7301   -1.5920 C   0  0  0  0  0  0  0  0  0  0  0  0
   -5.1937    0.2104   -1.9183 C   0  0  0  0  0  0  0  0  0  0  0  0
   -5.7347   -0.9208   -0.7565 S   0  0  0  0  0  0  0  0  0  0  0  0
   -4.3229   -0.7251    0.1802 C   0  0  0  0  0  0  0  0  0  0  0  0
   -4.1549   -1.4259    1.3128 N   0  0  0  0  0  0  0  0  0  0  0  0
   -2.9920   -1.1474    1.9050 C   0  0  0  0  0  0  0  0  0  0  0  0
   -2.0548   -0.2739    1.5040 N   0  0  0  0  0  0  0  0  0  0  0  0
    1.3158    0.0246    1.8349 C   0  0  0  0  0  0  0  0  0  0  0  0
    2.4438   -0.7989    1.7462 C   0  0  0  0  0  0  0  0  0  0  0  0
    3.2327   -0.8378    0.6057 C   0  0  0  0  0  0  0  0  0  0  0  0
    4.3096   -1.6442    0.5712 N   0  0  0  0  0  0  0  0  0  0  0  0
    5.0509   -1.6625   -0.5581 C   0  0  0  0  0  0  0  0  0  0  0  0
    5.4006   -0.9576   -2.5580 H   0  0  0  0  0  0  0  0  0  0  0  0
    3.4172    0.5398   -2.5041 H   0  0  0  0  0  0  0  0  0  0  0  0
    1.4503    1.4297   -1.2473 H   0  0  0  0  0  0  0  0  0  0  0  0
   -0.6374    1.8188    1.8822 H   0  0  0  0  0  0  0  0  0  0  0  0
    0.0630    2.7580    0.5915 H   0  0  0  0  0  0  0  0  0  0  0  0
   -1.6887    2.0805   -0.6320 H   0  0  0  0  0  0  0  0  0  0  0  0
   -3.4443    1.4545   -2.2095 H   0  0  0  0  0  0  0  0  0  0  0  0
   -5.8025    0.4354   -2.7835 H   0  0  0  0  0  0  0  0  0  0  0  0
   -2.7787   -1.6874    2.8223 H   0  0  0  0  0  0  0  0  0  0  0  0
    0.7172    0.0085    2.7432 H   0  0  0  0  0  0  0  0  0  0  0  0
    2.7104   -1.4322    2.5887 H   0  0  0  0  0  0  0  0  0  0  0  0
    5.9065   -2.3315   -0.5357 H   0  0  0  0  0  0  0  0  0  0  0  0
  1  2  2  0
  2  3  1  0
  3  4  2  0
  4  5  1  0
  5  6  1  0
  6  7  1  0
  7  8  1  0
  8  9  2  0
  9 10  1  0
 10 11  2  0
 11 12  1  0
 12 13  1  0
 13 14  2  0
 14 15  1  0
 15 16  2  0
  5 17  2  0
 17 18  1  0
 18 19  2  0
 19 20  1  0
 20 21  2  0
 21  1  1  0
 19  3  1  0
 16  8  1  0
 13  9  1  0
  1 22  1  0
  2 23  1  0
  4 24  1  0
  6 25  1  0
  6 26  1  0
  7 27  1  0
 10 28  1  0
 11 29  1  0
 15 30  1  0
 17 31  1  0
 18 32  1  0
 21 33  1  0
M  END
$$$$
OCNT-2313520
     RDKit          3D

 51 54  0  0  0  0  0  0  0  0999 V2000
    8.4591   -1.1963   -1.8808 C   0  0  0  0  0  0  0  0  0  0  0  0
    7.1760   -1.0330   -1.2418 N   0  0  0  0  0  0  0  0  0  0  0  0
    6.0512   -0.4775   -1.7822 C   0  0  0  0  0  0  0  0  0  0  0  0
    5.0794   -0.5311   -0.8025 C   0  0  0  0  0  0  0  0  0  0  0  0
    3.7197   -0.0393   -0.9349 C   0  0  0  0  0  0  0  0  0  0  0  0
    3.1032    0.1164   -2.1760 C   0  0  0  0  0  0  0  0  0  0  0  0
    1.8380    0.5739   -2.3575 N   0  0  0  0  0  0  0  0  0  0  0  0
    1.1423    0.8887   -1.2395 C   0  0  0  0  0  0  0  0  0  0  0  0
    1.6464    0.7489    0.0461 C   0  0  0  0  0  0  0  0  0  0  0  0
    0.8566    1.1046    1.2503 C   0  0  0  0  0  0  0  0  0  0  0  0
    1.4620    1.5148    2.2340 O   0  0  0  0  0  0  0  0  0  0  0  0
   -0.5000    0.9004    1.1466 N   0  0  0  0  0  0  0  0  0  0  0  0
   -1.5026    1.1732    2.1015 C   0  0  0  0  0  0  0  0  0  0  0  0
   -1.2715    1.7890    3.3309 C   0  0  0  0  0  0  0  0  0  0  0  0
   -2.3356    2.0183    4.2056 C   0  0  0  0  0  0  0  0  0  0  0  0
   -3.6289    1.6347    3.8555 C   0  0  0  0  0  0  0  0  0  0  0  0
   -3.8680    1.0202    2.6252 C   0  0  0  0  0  0  0  0  0  0  0  0
   -2.8141    0.7856    1.7319 C   0  0  0  0  0  0  0  0  0  0  0  0
   -3.0028    0.1567    0.4746 N   0  0  0  0  0  0  0  0  0  0  0  0
   -3.8444    0.9399   -0.4462 C   0  0  0  0  0  0  0  0  0  0  0  0
   -4.1830    0.0900   -1.6625 C   0  0  0  0  0  0  0  0  0  0  0  0
   -5.0318   -1.1140   -1.2520 C   0  0  0  0  0  0  0  0  0  0  0  0
   -4.8081   -2.1605   -2.1959 O   0  0  0  0  0  0  0  0  0  0  0  0
   -4.7320   -1.6080    0.1657 C   0  0  0  0  0  0  0  0  0  0  0  0
   -3.2984   -1.2873    0.5798 C   0  0  0  0  0  0  0  0  0  0  0  0
    2.9612    0.2912    0.1929 C   0  0  0  0  0  0  0  0  0  0  0  0
    5.7398   -1.1395    0.2925 C   0  0  0  0  0  0  0  0  0  0  0  0
    7.0100   -1.4520    0.0237 N   0  0  0  0  0  0  0  0  0  0  0  0
    8.4105   -0.8058   -2.9003 H   0  0  0  0  0  0  0  0  0  0  0  0
    8.7009   -2.2619   -1.9008 H   0  0  0  0  0  0  0  0  0  0  0  0
    9.2042   -0.6428   -1.3040 H   0  0  0  0  0  0  0  0  0  0  0  0
    6.0501   -0.0902   -2.7914 H   0  0  0  0  0  0  0  0  0  0  0  0
    3.6153   -0.1342   -3.1012 H   0  0  0  0  0  0  0  0  0  0  0  0
    0.1487    1.2839   -1.4303 H   0  0  0  0  0  0  0  0  0  0  0  0
   -0.8928    0.4359    0.3310 H   0  0  0  0  0  0  0  0  0  0  0  0
   -0.2769    2.1016    3.6320 H   0  0  0  0  0  0  0  0  0  0  0  0
   -2.1497    2.4977    5.1636 H   0  0  0  0  0  0  0  0  0  0  0  0
   -4.4517    1.8137    4.5429 H   0  0  0  0  0  0  0  0  0  0  0  0
   -4.8816    0.7245    2.3747 H   0  0  0  0  0  0  0  0  0  0  0  0
   -4.7727    1.2806    0.0295 H   0  0  0  0  0  0  0  0  0  0  0  0
   -3.2910    1.8302   -0.7680 H   0  0  0  0  0  0  0  0  0  0  0  0
   -3.2618   -0.2411   -2.1601 H   0  0  0  0  0  0  0  0  0  0  0  0
   -4.7287    0.6855   -2.4040 H   0  0  0  0  0  0  0  0  0  0  0  0
   -6.0942   -0.8504   -1.3176 H   0  0  0  0  0  0  0  0  0  0  0  0
   -5.4444   -2.8724   -2.0087 H   0  0  0  0  0  0  0  0  0  0  0  0
   -4.9043   -2.6872    0.2478 H   0  0  0  0  0  0  0  0  0  0  0  0
   -5.4195   -1.1170    0.8650 H   0  0  0  0  0  0  0  0  0  0  0  0
   -2.6030   -1.8186   -0.0821 H   0  0  0  0  0  0  0  0  0  0  0  0
   -3.1087   -1.6720    1.5903 H   0  0  0  0  0  0  0  0  0  0  0  0
    3.3804    0.2062    1.1933 H   0  0  0  0  0  0  0  0  0  0  0  0
    5.3471   -1.3739    1.2738 H   0  0  0  0  0  0  0  0  0  0  0  0
  1  2  1  0
  2  3  1  0
  3  4  2  0
  4  5  1  0
  5  6  2  0
  6  7  1  0
  7  8  2  0
  8  9  1  0
  9 10  1  0
 10 11  2  0
 10 12  1  0
 12 13  1  0
 13 14  2  0
 14 15  1  0
 15 16  2  0
 16 17  1  0
 17 18  2  0
 18 19  1  0
 19 20  1  0
 20 21  1  0
 21 22  1  0
 22 23  1  0
 22 24  1  0
 24 25  1  0
  9 26  2  0
  4 27  1  0
 27 28  2  0
 28  2  1  0
 26  5  1  0
 18 13  1  0
 25 19  1  0
  1 29  1  0
  1 30  1  0
  1 31  1  0
  3 32  1  0
  6 33  1  0
  8 34  1  0
 12 35  1  0
 14 36  1  0
 15 37  1  0
 16 38  1  0
 17 39  1  0
 20 40  1  0
 20 41  1  0
 21 42  1  0
 21 43  1  0
 22 44  1  0
 23 45  1  0
 24 46  1  0
 24 47  1  0
 25 48  1  0
 25 49  1  0
 26 50  1  0
 27 51  1  0
M  END
$$$$
OCNT-2313522
     RDKit          3D

 40 43  0  0  0  0  0  0  0  0999 V2000
    1.0528   -2.7898    1.3759 O   0  0  0  0  0  0  0  0  0  0  0  0
    0.8800   -1.7241    0.7877 C   0  0  0  0  0  0  0  0  0  0  0  0
    2.0335   -1.1367    0.0676 C   0  0  0  0  0  0  0  0  0  0  0  0
    1.9322   -0.8078   -1.2875 C   0  0  0  0  0  0  0  0  0  0  0  0
    3.0233   -0.2678   -1.9754 C   0  0  0  0  0  0  0  0  0  0  0  0
    4.2135   -0.0878   -1.2597 C   0  0  0  0  0  0  0  0  0  0  0  0
    5.4295    0.4111   -1.6715 N   0  0  0  0  0  0  0  0  0  0  0  0
    6.3238    0.3962   -0.6343 C   0  0  0  0  0  0  0  0  0  0  0  0
    5.6826   -0.1224    0.4672 C   0  0  0  0  0  0  0  0  0  0  0  0
    4.3473   -0.4306    0.0870 C   0  0  0  0  0  0  0  0  0  0  0  0
    3.2400   -0.9751    0.7639 C   0  0  0  0  0  0  0  0  0  0  0  0
   -0.3425   -1.0543    0.7656 N   0  0  0  0  0  0  0  0  0  0  0  0
   -1.4967   -1.7250    1.3548 C   0  0  0  0  0  0  0  0  0  0  0  0
   -2.8069   -1.1611    0.8243 C   0  0  0  0  0  0  0  0  0  0  0  0
   -2.9383    0.3438    1.1198 C   0  0  0  0  0  0  0  0  0  0  0  0
   -3.8274    1.0070    0.1107 C   0  0  0  0  0  0  0  0  0  0  0  0
   -5.1429    1.3988    0.2415 C   0  0  0  0  0  0  0  0  0  0  0  0
   -5.4796    1.9411   -0.9675 N   0  0  0  0  0  0  0  0  0  0  0  0
   -4.3812    1.8620   -1.7740 C   0  0  0  0  0  0  0  0  0  0  0  0
   -3.3682    1.3042   -1.1530 N   0  0  0  0  0  0  0  0  0  0  0  0
   -1.5707    1.0428    1.2257 C   0  0  0  0  0  0  0  0  0  0  0  0
   -0.5114    0.3505    0.3741 C   0  0  0  0  0  0  0  0  0  0  0  0
    1.0002   -0.9816   -1.8209 H   0  0  0  0  0  0  0  0  0  0  0  0
    2.9459   -0.0091   -3.0264 H   0  0  0  0  0  0  0  0  0  0  0  0
    5.6281    0.7355   -2.6078 H   0  0  0  0  0  0  0  0  0  0  0  0
    7.3367    0.7508   -0.7696 H   0  0  0  0  0  0  0  0  0  0  0  0
    6.1242   -0.2677    1.4445 H   0  0  0  0  0  0  0  0  0  0  0  0
    3.3152   -1.2660    1.8078 H   0  0  0  0  0  0  0  0  0  0  0  0
   -1.4334   -1.6013    2.4427 H   0  0  0  0  0  0  0  0  0  0  0  0
   -1.4393   -2.7991    1.1446 H   0  0  0  0  0  0  0  0  0  0  0  0
   -2.8556   -1.3478   -0.2572 H   0  0  0  0  0  0  0  0  0  0  0  0
   -3.6544   -1.6990    1.2665 H   0  0  0  0  0  0  0  0  0  0  0  0
   -3.4225    0.4541    2.1007 H   0  0  0  0  0  0  0  0  0  0  0  0
   -5.8438    1.3379    1.0619 H   0  0  0  0  0  0  0  0  0  0  0  0
   -6.3765    2.3294   -1.2247 H   0  0  0  0  0  0  0  0  0  0  0  0
   -4.3799    2.2232   -2.7937 H   0  0  0  0  0  0  0  0  0  0  0  0
   -1.6386    2.1035    0.9555 H   0  0  0  0  0  0  0  0  0  0  0  0
   -1.2431    1.0110    2.2738 H   0  0  0  0  0  0  0  0  0  0  0  0
   -0.7931    0.3660   -0.6842 H   0  0  0  0  0  0  0  0  0  0  0  0
    0.4374    0.8853    0.4805 H   0  0  0  0  0  0  0  0  0  0  0  0
  1  2  2  0
  2  3  1  0
  3  4  2  0
  4  5  1  0
  5  6  2  0
  6  7  1  0
  7  8  1  0
  8  9  2  0
  9 10  1  0
 10 11  2  0
  2 12  1  0
 12 13  1  0
 13 14  1  0
 14 15  1  0
 15 16  1  0
 16 17  2  0
 17 18  1  0
 18 19  1  0
 19 20  2  0
 15 21  1  0
 21 22  1  0
 11  3  1  0
 22 12  1  0
 10  6  1  0
 20 16  1  0
  4 23  1  0
  5 24  1  0
  7 25  1  0
  8 26  1  0
  9 27  1  0
 11 28  1  0
 13 29  1  0
 13 30  1  0
 14 31  1  0
 14 32  1  0
 15 33  1  0
 17 34  1  0
 18 35  1  0
 19 36  1  0
 21 37  1  0
 21 38  1  0
 22 39  1  0
 22 40  1  0
M  END
$$$$
OCNT-2313533
     RDKit          3D

 39 42  0  0  0  0  0  0  0  0999 V2000
    0.6959    3.1106   -0.5554 O   0  0  0  0  0  0  0  0  0  0  0  0
    0.8037    2.0227   -1.1171 C   0  0  0  0  0  0  0  0  0  0  0  0
    2.0492    1.6313   -1.8914 C   0  0  0  0  0  0  0  0  0  0  0  0
    2.8578    0.5595   -1.1956 C   0  0  0  0  0  0  0  0  0  0  0  0
    3.0213   -0.7015   -1.7897 C   0  0  0  0  0  0  0  0  0  0  0  0
    3.7583   -1.7135   -1.1580 C   0  0  0  0  0  0  0  0  0  0  0  0
    4.3420   -1.4449    0.0916 C   0  0  0  0  0  0  0  0  0  0  0  0
    5.1311   -2.1544    1.0240 C   0  0  0  0  0  0  0  0  0  0  0  0
    5.4401   -1.4268    2.1008 N   0  0  0  0  0  0  0  0  0  0  0  0
    4.8461   -0.2438    1.8579 N   0  0  0  0  0  0  0  0  0  0  0  0
    4.1729   -0.1906    0.6648 C   0  0  0  0  0  0  0  0  0  0  0  0
    3.4431    0.8344    0.0540 C   0  0  0  0  0  0  0  0  0  0  0  0
   -0.1812    1.0517   -1.1197 N   0  0  0  0  0  0  0  0  0  0  0  0
   -1.3816    1.1959   -0.3547 C   0  0  0  0  0  0  0  0  0  0  0  0
   -2.5216    2.0399   -0.8364 C   0  0  0  0  0  0  0  0  0  0  0  0
   -2.6637    0.5384   -0.8327 C   0  0  0  0  0  0  0  0  0  0  0  0
   -3.5378   -0.1840    0.1728 C   0  0  0  0  0  0  0  0  0  0  0  0
   -4.7957    0.3340    0.5373 C   0  0  0  0  0  0  0  0  0  0  0  0
   -5.6261   -0.3233    1.4509 C   0  0  0  0  0  0  0  0  0  0  0  0
   -5.2228   -1.5276    2.0188 C   0  0  0  0  0  0  0  0  0  0  0  0
   -3.9902   -2.0747    1.6715 C   0  0  0  0  0  0  0  0  0  0  0  0
   -3.1621   -1.4122    0.7575 C   0  0  0  0  0  0  0  0  0  0  0  0
   -1.6552   -2.1651    0.3509 Cl  0  0  0  0  0  0  0  0  0  0  0  0
    2.6735    2.5216   -2.0319 H   0  0  0  0  0  0  0  0  0  0  0  0
    1.7444    1.3087   -2.8944 H   0  0  0  0  0  0  0  0  0  0  0  0
    2.5762   -0.9160   -2.7612 H   0  0  0  0  0  0  0  0  0  0  0  0
    3.8761   -2.6852   -1.6285 H   0  0  0  0  0  0  0  0  0  0  0  0
    5.4915   -3.1723    0.9597 H   0  0  0  0  0  0  0  0  0  0  0  0
    4.9371    0.4921    2.5488 H   0  0  0  0  0  0  0  0  0  0  0  0
    3.3289    1.8052    0.5303 H   0  0  0  0  0  0  0  0  0  0  0  0
    0.1004    0.1051   -1.3551 H   0  0  0  0  0  0  0  0  0  0  0  0
   -1.1914    1.2166    0.7166 H   0  0  0  0  0  0  0  0  0  0  0  0
   -2.4154    2.5399   -1.7923 H   0  0  0  0  0  0  0  0  0  0  0  0
   -3.0368    2.6350   -0.0918 H   0  0  0  0  0  0  0  0  0  0  0  0
   -2.6338    0.0731   -1.8161 H   0  0  0  0  0  0  0  0  0  0  0  0
   -5.1392    1.2713    0.1019 H   0  0  0  0  0  0  0  0  0  0  0  0
   -6.5889    0.1080    1.7149 H   0  0  0  0  0  0  0  0  0  0  0  0
   -5.8676   -2.0407    2.7280 H   0  0  0  0  0  0  0  0  0  0  0  0
   -3.6789   -3.0186    2.1121 H   0  0  0  0  0  0  0  0  0  0  0  0
  1  2  2  0
  2  3  1  0
  3  4  1  0
  4  5  2  0
  5  6  1  0
  6  7  2  0
  7  8  1  0
  8  9  2  0
  9 10  1  0
 10 11  1  0
 11 12  2  0
  2 13  1  0
 13 14  1  0
 14 15  1  0
 15 16  1  0
 16 17  1  0
 17 18  2  0
 18 19  1  0
 19 20  2  0
 20 21  1  0
 21 22  2  0
 22 23  1  0
 12  4  1  0
 16 14  1  0
 22 17  1  0
 11  7  1  0
  3 24  1  0
  3 25  1  0
  5 26  1  0
  6 27  1  0
  8 28  1  0
 10 29  1  0
 12 30  1  0
 13 31  1  0
 14 32  1  0
 15 33  1  0
 15 34  1  0
 16 35  1  0
 18 36  1  0
 19 37  1  0
 20 38  1  0
 21 39  1  0
M  END
$$$$
OCNT-2313558
     RDKit          3D

 43 45  0  0  0  0  0  0  0  0999 V2000
    4.8487   -0.2667   -2.3592 C   0  0  0  0  0  0  0  0  0  0  0  0
    5.1810   -0.3180   -0.8992 C   0  0  0  0  0  0  0  0  0  0  0  0
    6.4269   -0.7658   -0.6057 N   0  0  0  0  0  0  0  0  0  0  0  0
    6.8344   -0.8521    0.6869 N   0  0  0  0  0  0  0  0  0  0  0  0
    5.9861   -0.4919    1.6663 C   0  0  0  0  0  0  0  0  0  0  0  0
    4.7075   -0.0331    1.4177 C   0  0  0  0  0  0  0  0  0  0  0  0
    4.2783    0.0689    0.0989 C   0  0  0  0  0  0  0  0  0  0  0  0
    2.9797    0.5181   -0.2496 N   0  0  0  0  0  0  0  0  0  0  0  0
    2.0388    1.0808    0.5853 C   0  0  0  0  0  0  0  0  0  0  0  0
    2.1930    1.3842    1.7597 O   0  0  0  0  0  0  0  0  0  0  0  0
    0.8525    1.2947   -0.0894 N   0  0  0  0  0  0  0  0  0  0  0  0
   -0.3032    1.8559    0.5890 C   0  0  0  0  0  0  0  0  0  0  0  0
   -1.0538    0.8421    1.4575 C   0  0  0  0  0  0  0  0  0  0  0  0
   -1.8067   -0.2313    0.6554 C   0  0  0  0  0  0  0  0  0  0  0  0
   -1.9935   -1.3520    1.5408 O   0  0  0  0  0  0  0  0  0  0  0  0
   -2.8343   -2.4082    1.0602 C   0  0  0  0  0  0  0  0  0  0  0  0
   -3.3128   -2.2727   -0.3871 C   0  0  0  0  0  0  0  0  0  0  0  0
   -3.8663   -0.8860   -0.5664 C   0  0  0  0  0  0  0  0  0  0  0  0
   -5.0561   -0.6379   -1.2543 C   0  0  0  0  0  0  0  0  0  0  0  0
   -5.5421    0.6639   -1.3382 C   0  0  0  0  0  0  0  0  0  0  0  0
   -4.8440    1.7088   -0.7344 C   0  0  0  0  0  0  0  0  0  0  0  0
   -3.6443    1.4631   -0.0596 C   0  0  0  0  0  0  0  0  0  0  0  0
   -3.1290    0.1658    0.0158 C   0  0  0  0  0  0  0  0  0  0  0  0
    3.9939   -0.9136   -2.5797 H   0  0  0  0  0  0  0  0  0  0  0  0
    4.6187    0.7593   -2.6629 H   0  0  0  0  0  0  0  0  0  0  0  0
    5.6932   -0.6123   -2.9650 H   0  0  0  0  0  0  0  0  0  0  0  0
    6.3697   -0.5876    2.6756 H   0  0  0  0  0  0  0  0  0  0  0  0
    4.0802    0.2250    2.2617 H   0  0  0  0  0  0  0  0  0  0  0  0
    2.7600    0.5760   -1.2313 H   0  0  0  0  0  0  0  0  0  0  0  0
    0.6787    0.7256   -0.9037 H   0  0  0  0  0  0  0  0  0  0  0  0
   -0.9415    2.2848   -0.1872 H   0  0  0  0  0  0  0  0  0  0  0  0
    0.0441    2.6799    1.2228 H   0  0  0  0  0  0  0  0  0  0  0  0
   -0.3398    0.3505    2.1314 H   0  0  0  0  0  0  0  0  0  0  0  0
   -1.7549    1.3710    2.1152 H   0  0  0  0  0  0  0  0  0  0  0  0
   -1.1429   -0.5784   -0.1475 H   0  0  0  0  0  0  0  0  0  0  0  0
   -2.2900   -3.3499    1.1871 H   0  0  0  0  0  0  0  0  0  0  0  0
   -3.6981   -2.4501    1.7348 H   0  0  0  0  0  0  0  0  0  0  0  0
   -4.0667   -3.0378   -0.6013 H   0  0  0  0  0  0  0  0  0  0  0  0
   -2.4800   -2.4123   -1.0863 H   0  0  0  0  0  0  0  0  0  0  0  0
   -5.6152   -1.4516   -1.7089 H   0  0  0  0  0  0  0  0  0  0  0  0
   -6.4733    0.8642   -1.8618 H   0  0  0  0  0  0  0  0  0  0  0  0
   -5.2366    2.7216   -0.7876 H   0  0  0  0  0  0  0  0  0  0  0  0
   -3.1403    2.3048    0.4046 H   0  0  0  0  0  0  0  0  0  0  0  0
  1  2  1  0
  2  3  1  0
  3  4  2  0
  4  5  1  0
  5  6  2  0
  6  7  1  0
  7  8  1  0
  8  9  1  0
  9 10  2  0
  9 11  1  0
 11 12  1  0
 12 13  1  0
 13 14  1  0
 14 15  1  0
 15 16  1  0
 16 17  1  0
 17 18  1  0
 18 19  2  0
 19 20  1  0
 20 21  2  0
 21 22  1  0
 22 23  2  0
  7  2  2  0
 23 14  1  0
 23 18  1  0
  1 24  1  0
  1 25  1  0
  1 26  1  0
  5 27  1  0
  6 28  1  0
  8 29  1  0
 11 30  1  0
 12 31  1  0
 12 32  1  0
 13 33  1  0
 13 34  1  0
 14 35  1  0
 16 36  1  0
 16 37  1  0
 17 38  1  0
 17 39  1  0
 19 40  1  0
 20 41  1  0
 21 42  1  0
 22 43  1  0
M  END
$$$$
OCNT-2313581
     RDKit          3D

 47 48  0  0  0  0  0  0  0  0999 V2000
   -2.5379    3.8355   -1.9897 C   0  0  0  0  0  0  0  0  0  0  0  0
   -2.3401    2.4716   -1.3988 C   0  0  0  0  0  0  0  0  0  0  0  0
   -2.0439    2.3224   -0.0406 C   0  0  0  0  0  0  0  0  0  0  0  0
   -1.8920    1.0501    0.5205 C   0  0  0  0  0  0  0  0  0  0  0  0
   -2.0309   -0.1044   -0.2647 C   0  0  0  0  0  0  0  0  0  0  0  0
   -1.8673   -1.5265    0.2910 C   0  0  0  0  0  0  0  0  0  0  0  0
   -0.7928   -1.6431    1.4199 C   0  0  0  0  0  0  0  0  0  0  0  0
    0.5339   -1.2120    1.0049 N   0  0  0  0  0  0  0  0  0  0  0  0
    1.3283   -1.9983    0.1931 C   0  0  0  0  0  0  0  0  0  0  0  0
    1.0486   -3.1545   -0.1103 O   0  0  0  0  0  0  0  0  0  0  0  0
    2.5794   -1.2800   -0.3352 C   0  0  0  0  0  0  0  0  0  0  0  0
    2.9150   -0.1229    0.5187 N   0  0  0  0  0  0  0  0  0  0  0  0
    4.0350    0.6521    0.1894 C   0  0  0  0  0  0  0  0  0  0  0  0
    4.5477    0.7761   -1.1027 C   0  0  0  0  0  0  0  0  0  0  0  0
    5.6198    1.6328   -1.3617 C   0  0  0  0  0  0  0  0  0  0  0  0
    6.1411    2.3751   -0.3173 C   0  0  0  0  0  0  0  0  0  0  0  0
    5.6609    2.3265    0.9396 N   0  0  0  0  0  0  0  0  0  0  0  0
    4.6177    1.4865    1.1512 C   0  0  0  0  0  0  0  0  0  0  0  0
   -3.1953   -2.1147    0.6011 N   0  0  0  0  0  0  0  0  0  0  0  0
   -3.7961   -1.6228    1.8376 C   0  0  0  0  0  0  0  0  0  0  0  0
   -3.1557   -3.5772    0.5978 C   0  0  0  0  0  0  0  0  0  0  0  0
   -2.3628    0.0567   -1.6210 C   0  0  0  0  0  0  0  0  0  0  0  0
   -2.5158    1.3275   -2.1813 C   0  0  0  0  0  0  0  0  0  0  0  0
   -2.2597    3.8464   -3.0488 H   0  0  0  0  0  0  0  0  0  0  0  0
   -1.9104    4.5757   -1.4821 H   0  0  0  0  0  0  0  0  0  0  0  0
   -3.5860    4.1359   -1.8959 H   0  0  0  0  0  0  0  0  0  0  0  0
   -1.9350    3.1989    0.5944 H   0  0  0  0  0  0  0  0  0  0  0  0
   -1.6785    0.9834    1.5832 H   0  0  0  0  0  0  0  0  0  0  0  0
   -1.4592   -2.0962   -0.5574 H   0  0  0  0  0  0  0  0  0  0  0  0
   -0.7059   -2.6850    1.7471 H   0  0  0  0  0  0  0  0  0  0  0  0
   -1.0557   -1.0466    2.2989 H   0  0  0  0  0  0  0  0  0  0  0  0
    0.7316   -0.2143    0.9562 H   0  0  0  0  0  0  0  0  0  0  0  0
    3.4074   -1.9971   -0.3376 H   0  0  0  0  0  0  0  0  0  0  0  0
    2.3467   -0.9626   -1.3569 H   0  0  0  0  0  0  0  0  0  0  0  0
    2.9419   -0.3975    1.5018 H   0  0  0  0  0  0  0  0  0  0  0  0
    4.1290    0.2207   -1.9352 H   0  0  0  0  0  0  0  0  0  0  0  0
    6.0297    1.7239   -2.3614 H   0  0  0  0  0  0  0  0  0  0  0  0
    6.9744    3.0542   -0.4718 H   0  0  0  0  0  0  0  0  0  0  0  0
    4.2414    1.5012    2.1707 H   0  0  0  0  0  0  0  0  0  0  0  0
   -3.8969   -0.5335    1.8324 H   0  0  0  0  0  0  0  0  0  0  0  0
   -3.2279   -1.9158    2.7270 H   0  0  0  0  0  0  0  0  0  0  0  0
   -4.8127   -2.0184    1.9469 H   0  0  0  0  0  0  0  0  0  0  0  0
   -2.5473   -3.9847    1.4119 H   0  0  0  0  0  0  0  0  0  0  0  0
   -2.7632   -3.9557   -0.3524 H   0  0  0  0  0  0  0  0  0  0  0  0
   -4.1682   -3.9852    0.6962 H   0  0  0  0  0  0  0  0  0  0  0  0
   -2.5140   -0.8190   -2.2497 H   0  0  0  0  0  0  0  0  0  0  0  0
   -2.7786    1.4147   -3.2330 H   0  0  0  0  0  0  0  0  0  0  0  0
  1  2  1  0
  2  3  1  0
  3  4  2  0
  4  5  1  0
  5  6  1  0
  6  7  1  0
  7  8  1  0
  8  9  1  0
  9 10  2  0
  9 11  1  0
 11 12  1  0
 12 13  1  0
 13 14  1  0
 14 15  2  0
 15 16  1  0
 16 17  2  0
 17 18  1  0
  6 19  1  0
 19 20  1  0
 19 21  1  0
  5 22  2  0
 22 23  1  0
 23  2  2  0
 18 13  2  0
  1 24  1  0
  1 25  1  0
  1 26  1  0
  3 27  1  0
  4 28  1  0
  6 29  1  0
  7 30  1  0
  7 31  1  0
  8 32  1  0
 11 33  1  0
 11 34  1  0
 12 35  1  0
 14 36  1  0
 15 37  1  0
 16 38  1  0
 18 39  1  0
 20 40  1  0
 20 41  1  0
 20 42  1  0
 21 43  1  0
 21 44  1  0
 21 45  1  0
 22 46  1  0
 23 47  1  0
M  END
$$$$
OCNT-2313630
     RDKit          3D

 48 51  0  0  0  0  0  0  0  0999 V2000
    1.6734   -0.7173    0.4346 O   0  0  0  0  0  0  0  0  0  0  0  0
    1.6059   -0.4018   -0.7489 C   0  0  0  0  0  0  0  0  0  0  0  0
    0.4833   -0.6966   -1.4971 N   0  0  0  0  0  0  0  0  0  0  0  0
   -0.6997   -1.2910   -0.8802 C   0  0  0  0  0  0  0  0  0  0  0  0
   -1.6267   -1.8654   -1.9549 C   0  0  0  0  0  0  0  0  0  0  0  0
   -2.8601   -2.5410   -1.3474 C   0  0  0  0  0  0  0  0  0  0  0  0
   -3.2325   -1.9979    0.0346 C   0  0  0  0  0  0  0  0  0  0  0  0
   -2.9018   -0.5705    0.0888 N   0  0  0  0  0  0  0  0  0  0  0  0
   -3.7438    0.2811    0.8062 C   0  0  0  0  0  0  0  0  0  0  0  0
   -5.1426    0.1930    0.6658 C   0  0  0  0  0  0  0  0  0  0  0  0
   -6.0200    1.0440    1.3514 C   0  0  0  0  0  0  0  0  0  0  0  0
   -5.5133    2.0233    2.1945 C   0  0  0  0  0  0  0  0  0  0  0  0
   -4.1395    2.1436    2.3297 C   0  0  0  0  0  0  0  0  0  0  0  0
   -3.6401    3.0949    3.1304 F   0  0  0  0  0  0  0  0  0  0  0  0
   -3.2654    1.2971    1.6466 C   0  0  0  0  0  0  0  0  0  0  0  0
   -1.4549   -0.2821    0.0301 C   0  0  0  0  0  0  0  0  0  0  0  0
    2.6436    0.3098   -1.4588 C   0  0  0  0  0  0  0  0  0  0  0  0
    2.7743    0.5986   -2.8105 C   0  0  0  0  0  0  0  0  0  0  0  0
    3.9671    1.3256   -2.9316 C   0  0  0  0  0  0  0  0  0  0  0  0
    4.5708    1.4964   -1.7601 N   0  0  0  0  0  0  0  0  0  0  0  0
    3.7760    0.8518   -0.8785 N   0  0  0  0  0  0  0  0  0  0  0  0
    4.0908    0.8106    0.5702 C   0  0  0  0  0  0  0  0  0  0  0  0
    4.7571   -0.5219    1.0023 C   0  0  0  0  0  0  0  0  0  0  0  0
    5.6338    0.3180    1.9545 C   0  0  0  0  0  0  0  0  0  0  0  0
    5.4221    1.4971    0.9816 C   0  0  0  0  0  0  0  0  0  0  0  0
    0.3601   -0.2257   -2.3816 H   0  0  0  0  0  0  0  0  0  0  0  0
   -0.3507   -2.1212   -0.2512 H   0  0  0  0  0  0  0  0  0  0  0  0
   -1.9538   -1.0557   -2.6214 H   0  0  0  0  0  0  0  0  0  0  0  0
   -1.0905   -2.5801   -2.5911 H   0  0  0  0  0  0  0  0  0  0  0  0
   -2.6936   -3.6219   -1.2679 H   0  0  0  0  0  0  0  0  0  0  0  0
   -3.7033   -2.4100   -2.0369 H   0  0  0  0  0  0  0  0  0  0  0  0
   -2.6625   -2.5265    0.8103 H   0  0  0  0  0  0  0  0  0  0  0  0
   -4.2848   -2.2274    0.2298 H   0  0  0  0  0  0  0  0  0  0  0  0
   -5.5779   -0.5299   -0.0199 H   0  0  0  0  0  0  0  0  0  0  0  0
   -7.0929    0.9424    1.2128 H   0  0  0  0  0  0  0  0  0  0  0  0
   -6.1711    2.6944    2.7355 H   0  0  0  0  0  0  0  0  0  0  0  0
   -2.2053    1.4531    1.8090 H   0  0  0  0  0  0  0  0  0  0  0  0
   -1.3118    0.7321   -0.3651 H   0  0  0  0  0  0  0  0  0  0  0  0
   -1.0104   -0.3184    1.0329 H   0  0  0  0  0  0  0  0  0  0  0  0
    2.1048    0.3232   -3.6125 H   0  0  0  0  0  0  0  0  0  0  0  0
    4.4213    1.7398   -3.8231 H   0  0  0  0  0  0  0  0  0  0  0  0
    3.2504    1.1295    1.1994 H   0  0  0  0  0  0  0  0  0  0  0  0
    5.3289   -1.0324    0.2174 H   0  0  0  0  0  0  0  0  0  0  0  0
    4.1067   -1.2493    1.4945 H   0  0  0  0  0  0  0  0  0  0  0  0
    6.6656   -0.0213    2.0761 H   0  0  0  0  0  0  0  0  0  0  0  0
    5.1886    0.4747    2.9435 H   0  0  0  0  0  0  0  0  0  0  0  0
    5.3201    2.4783    1.4524 H   0  0  0  0  0  0  0  0  0  0  0  0
    6.2046    1.5535    0.2162 H   0  0  0  0  0  0  0  0  0  0  0  0
  1  2  2  0
  2  3  1  0
  3  4  1  0
  4  5  1  0
  5  6  1  0
  6  7  1  0
  7  8  1  0
  8  9  1  0
  9 10  2  0
 10 11  1  0
 11 12  2  0
 12 13  1  0
 13 14  1  0
 13 15  2  0
  8 16  1  0
  2 17  1  0
 17 18  2  0
 18 19  1  0
 19 20  2  0
 20 21  1  0
 21 22  1  0
 22 23  1  0
 23 24  1  0
 24 25  1  0
 16  4  1  0
 21 17  1  0
 25 22  1  0
 15  9  1  0
  3 26  1  0
  4 27  1  0
  5 28  1  0
  5 29  1  0
  6 30  1  0
  6 31  1  0
  7 32  1  0
  7 33  1  0
 10 34  1  0
 11 35  1  0
 12 36  1  0
 15 37  1  0
 16 38  1  0
 16 39  1  0
 18 40  1  0
 19 41  1  0
 22 42  1  0
 23 43  1  0
 23 44  1  0
 24 45  1  0
 24 46  1  0
 25 47  1  0
 25 48  1  0
M  END
$$$$
OCNT-2313636
     RDKit          3D

 48 51  0  0  0  0  0  0  0  0999 V2000
   -2.2566   -0.2817   -3.6562 C   0  0  0  0  0  0  0  0  0  0  0  0
   -2.6741   -0.1538   -2.2723 N   0  0  0  0  0  0  0  0  0  0  0  0
   -1.9950   -0.9796   -1.2833 C   0  0  0  0  0  0  0  0  0  0  0  0
   -2.1042   -0.4365    0.1442 C   0  0  0  0  0  0  0  0  0  0  0  0
   -1.1189    0.7248    0.3421 C   0  0  0  0  0  0  0  0  0  0  0  0
   -1.4881    1.8991    0.2715 O   0  0  0  0  0  0  0  0  0  0  0  0
    0.2185    0.4157    0.5722 N   0  0  0  0  0  0  0  0  0  0  0  0
    1.1952    1.5088    0.6049 C   0  0  0  0  0  0  0  0  0  0  0  0
    2.5507    1.1044   -0.0038 C   0  0  0  0  0  0  0  0  0  0  0  0
    3.0882   -0.1384    0.5923 N   0  0  0  0  0  0  0  0  0  0  0  0
    4.4629   -0.3406    0.6274 C   0  0  0  0  0  0  0  0  0  0  0  0
    5.1116   -1.1238    1.5961 C   0  0  0  0  0  0  0  0  0  0  0  0
    6.4488   -1.3669    1.6688 N   0  0  0  0  0  0  0  0  0  0  0  0
    7.2083   -0.7975    0.7109 C   0  0  0  0  0  0  0  0  0  0  0  0
    6.6857   -0.0125   -0.2959 C   0  0  0  0  0  0  0  0  0  0  0  0
    7.4847    0.5220   -1.2281 F   0  0  0  0  0  0  0  0  0  0  0  0
    5.3135    0.2140   -0.3388 C   0  0  0  0  0  0  0  0  0  0  0  0
    2.1797   -0.9087    1.4540 C   0  0  0  0  0  0  0  0  0  0  0  0
    0.7445   -0.9182    0.8861 C   0  0  0  0  0  0  0  0  0  0  0  0
   -3.5363   -0.0512    0.4479 C   0  0  0  0  0  0  0  0  0  0  0  0
   -4.0021   -0.0386    1.7730 C   0  0  0  0  0  0  0  0  0  0  0  0
   -5.3175    0.3320    2.0558 C   0  0  0  0  0  0  0  0  0  0  0  0
   -6.1778    0.7005    1.0238 C   0  0  0  0  0  0  0  0  0  0  0  0
   -5.7232    0.7014   -0.2950 C   0  0  0  0  0  0  0  0  0  0  0  0
   -4.4052    0.3271   -0.5888 C   0  0  0  0  0  0  0  0  0  0  0  0
   -3.9497    0.3467   -2.0099 C   0  0  0  0  0  0  0  0  0  0  0  0
   -4.6961    0.7784   -2.8839 O   0  0  0  0  0  0  0  0  0  0  0  0
   -2.5360   -1.2758   -4.0173 H   0  0  0  0  0  0  0  0  0  0  0  0
   -2.7357    0.4736   -4.2854 H   0  0  0  0  0  0  0  0  0  0  0  0
   -1.1721   -0.1550   -3.7190 H   0  0  0  0  0  0  0  0  0  0  0  0
   -0.9471   -1.0814   -1.5841 H   0  0  0  0  0  0  0  0  0  0  0  0
   -2.4554   -1.9747   -1.3384 H   0  0  0  0  0  0  0  0  0  0  0  0
   -1.8429   -1.2479    0.8305 H   0  0  0  0  0  0  0  0  0  0  0  0
    1.3224    1.7889    1.6578 H   0  0  0  0  0  0  0  0  0  0  0  0
    0.8120    2.3882    0.0766 H   0  0  0  0  0  0  0  0  0  0  0  0
    3.2421    1.9431    0.1433 H   0  0  0  0  0  0  0  0  0  0  0  0
    2.4282    0.9454   -1.0820 H   0  0  0  0  0  0  0  0  0  0  0  0
    4.5575   -1.5954    2.4023 H   0  0  0  0  0  0  0  0  0  0  0  0
    8.2735   -0.9921    0.7687 H   0  0  0  0  0  0  0  0  0  0  0  0
    4.9284    0.8132   -1.1566 H   0  0  0  0  0  0  0  0  0  0  0  0
    2.5022   -1.9533    1.5357 H   0  0  0  0  0  0  0  0  0  0  0  0
    2.1785   -0.4725    2.4605 H   0  0  0  0  0  0  0  0  0  0  0  0
    0.7232   -1.4982   -0.0428 H   0  0  0  0  0  0  0  0  0  0  0  0
    0.0824   -1.4064    1.6071 H   0  0  0  0  0  0  0  0  0  0  0  0
   -3.3416   -0.3066    2.5945 H   0  0  0  0  0  0  0  0  0  0  0  0
   -5.6700    0.3441    3.0843 H   0  0  0  0  0  0  0  0  0  0  0  0
   -7.2000    0.9975    1.2443 H   0  0  0  0  0  0  0  0  0  0  0  0
   -6.3970    1.0016   -1.0951 H   0  0  0  0  0  0  0  0  0  0  0  0
  1  2  1  0
  2  3  1  0
  3  4  1  0
  4  5  1  0
  5  6  2  0
  5  7  1  0
  7  8  1  0
  8  9  1  0
  9 10  1  0
 10 11  1  0
 11 12  2  0
 12 13  1  0
 13 14  2  0
 14 15  1  0
 15 16  1  0
 15 17  2  0
 10 18  1  0
 18 19  1  0
  4 20  1  0
 20 21  2  0
 21 22  1  0
 22 23  2  0
 23 24  1  0
 24 25  2  0
 25 26  1  0
 26 27  2  0
 26  2  1  0
 19  7  1  0
 25 20  1  0
 17 11  1  0
  1 28  1  0
  1 29  1  0
  1 30  1  0
  3 31  1  0
  3 32  1  0
  4 33  1  0
  8 34  1  0
  8 35  1  0
  9 36  1  0
  9 37  1  0
 12 38  1  0
 14 39  1  0
 17 40  1  0
 18 41  1  0
 18 42  1  0
 19 43  1  0
 19 44  1  0
 21 45  1  0
 22 46  1  0
 23 47  1  0
 24 48  1  0
M  END
$$$$
OCNT-2313647
     RDKit          3D

 42 45  0  0  0  0  0  0  0  0999 V2000
    0.6337    1.5270   -2.7393 C   0  0  0  0  0  0  0  0  0  0  0  0
    1.6913    1.1738   -1.7707 C   0  0  0  0  0  0  0  0  0  0  0  0
    1.7650    0.3636   -0.6540 C   0  0  0  0  0  0  0  0  0  0  0  0
    0.7010   -0.4293   -0.0821 C   0  0  0  0  0  0  0  0  0  0  0  0
    0.8872   -1.5472    0.3889 O   0  0  0  0  0  0  0  0  0  0  0  0
   -0.5409    0.1555   -0.0869 N   0  0  0  0  0  0  0  0  0  0  0  0
   -1.7040   -0.5430    0.4266 C   0  0  1  0  0  0  0  0  0  0  0  0
   -2.8821    0.3862    0.4875 C   0  0  0  0  0  0  0  0  0  0  0  0
   -3.1185    1.4025    1.4009 C   0  0  0  0  0  0  0  0  0  0  0  0
   -4.2679    2.1794    1.2449 C   0  0  0  0  0  0  0  0  0  0  0  0
   -5.1538    1.9401    0.1828 C   0  0  0  0  0  0  0  0  0  0  0  0
   -4.9048    0.9194   -0.7372 C   0  0  0  0  0  0  0  0  0  0  0  0
   -3.7690    0.1457   -0.5688 C   0  0  0  0  0  0  0  0  0  0  0  0
   -3.2875   -0.9758   -1.4354 C   0  0  0  0  0  0  0  0  0  0  0  0
   -2.2494   -1.6584   -0.5238 C   0  0  1  0  0  0  0  0  0  0  0  0
   -1.2506   -2.3041   -1.3080 O   0  0  0  0  0  0  0  0  0  0  0  0
    3.1408    0.4352   -0.2634 C   0  0  0  0  0  0  0  0  0  0  0  0
    3.8373   -0.2106    0.8460 C   0  0  0  0  0  0  0  0  0  0  0  0
    5.1540   -0.6620    0.7014 C   0  0  0  0  0  0  0  0  0  0  0  0
    5.8114   -1.2538    1.7787 C   0  0  0  0  0  0  0  0  0  0  0  0
    5.1319   -1.3693    2.9794 C   0  0  0  0  0  0  0  0  0  0  0  0
    3.8668   -0.9385    3.1676 N   0  0  0  0  0  0  0  0  0  0  0  0
    3.2513   -0.3732    2.0977 C   0  0  0  0  0  0  0  0  0  0  0  0
    3.8141    1.2577   -1.0864 N   0  0  0  0  0  0  0  0  0  0  0  0
    2.9099    1.7158   -2.0132 O   0  0  0  0  0  0  0  0  0  0  0  0
    1.0638    1.8357   -3.6975 H   0  0  0  0  0  0  0  0  0  0  0  0
    0.0276    2.3537   -2.3569 H   0  0  0  0  0  0  0  0  0  0  0  0
   -0.0234    0.6731   -2.9307 H   0  0  0  0  0  0  0  0  0  0  0  0
   -0.6705    1.0874   -0.4539 H   0  0  0  0  0  0  0  0  0  0  0  0
   -1.4666   -0.9699    1.4076 H   0  0  0  0  0  0  0  0  0  0  0  0
   -2.4306    1.5948    2.2188 H   0  0  0  0  0  0  0  0  0  0  0  0
   -4.4794    2.9801    1.9501 H   0  0  0  0  0  0  0  0  0  0  0  0
   -6.0426    2.5579    0.0753 H   0  0  0  0  0  0  0  0  0  0  0  0
   -5.5894    0.7407   -1.5608 H   0  0  0  0  0  0  0  0  0  0  0  0
   -2.8310   -0.5908   -2.3537 H   0  0  0  0  0  0  0  0  0  0  0  0
   -4.0917   -1.6699   -1.6981 H   0  0  0  0  0  0  0  0  0  0  0  0
   -2.7573   -2.4236    0.0790 H   0  0  0  0  0  0  0  0  0  0  0  0
   -0.5217   -2.5427   -0.6980 H   0  0  0  0  0  0  0  0  0  0  0  0
    5.6734   -0.5555   -0.2485 H   0  0  0  0  0  0  0  0  0  0  0  0
    6.8300   -1.6122    1.6817 H   0  0  0  0  0  0  0  0  0  0  0  0
    5.6018   -1.8224    3.8477 H   0  0  0  0  0  0  0  0  0  0  0  0
    2.2406   -0.0346    2.3050 H   0  0  0  0  0  0  0  0  0  0  0  0
  1  2  1  0
  2  3  2  0
  3  4  1  0
  4  5  2  0
  4  6  1  0
  6  7  1  0
  7  8  1  0
  8  9  2  0
  9 10  1  0
 10 11  2  0
 11 12  1  0
 12 13  2  0
 13 14  1  0
 14 15  1  0
 15 16  1  0
  3 17  1  0
 17 18  1  0
 18 19  1  0
 19 20  2  0
 20 21  1  0
 21 22  2  0
 22 23  1  0
 17 24  2  0
 24 25  1  0
 25  2  1  0
 15  7  1  0
 23 18  2  0
 13  8  1  0
  1 26  1  0
  1 27  1  0
  1 28  1  0
  6 29  1  0
  7 30  1  1
  9 31  1  0
 10 32  1  0
 11 33  1  0
 12 34  1  0
 14 35  1  0
 14 36  1  0
 15 37  1  1
 16 38  1  0
 19 39  1  0
 20 40  1  0
 21 41  1  0
 23 42  1  0
M  END
$$$$
OCNT-2313652
     RDKit          3D

  0  0  0  0  0  0  0  0  0  0999 V3000
M  V30 BEGIN CTAB
M  V30 COUNTS 44 46 0 0 0
M  V30 BEGIN ATOM
M  V30 1 C 2.961805 -1.938664 -0.419657 0
M  V30 2 C 2.923152 -0.436585 -0.556671 0
M  V30 3 C 3.218260 0.137374 -1.804178 0
M  V30 4 C 3.205918 1.523882 -1.973958 0
M  V30 5 C 2.904148 2.360931 -0.900383 0
M  V30 6 C 2.607685 1.808772 0.344583 0
M  V30 7 C 2.607175 0.411314 0.534415 0
M  V30 8 C 2.187740 -0.127297 1.891382 0
M  V30 9 C 0.681238 -0.129029 2.145716 0
M  V30 10 O 0.229091 -0.174657 3.284995 0
M  V30 11 N -0.117151 -0.156709 1.032779 0
M  V30 12 C -1.551365 0.115281 1.023067 0 CFG=1
M  V30 13 C -1.885398 0.680787 -0.338980 0
M  V30 14 C -1.583280 2.018649 -0.643047 0
M  V30 15 C -1.841475 2.530130 -1.914134 0
M  V30 16 C -2.403908 1.712597 -2.889298 0
M  V30 17 C -2.702988 0.382025 -2.597230 0
M  V30 18 C -2.436322 -0.137856 -1.332000 0
M  V30 19 O -2.765236 -1.453631 -1.152781 0
M  V30 20 C -2.333399 -2.047403 0.076040 0
M  V30 21 C -2.452835 -1.105692 1.265801 0 CFG=1
M  V30 22 C -2.204590 -1.824526 2.582254 0
M  V30 23 O -2.275893 -0.884533 3.649592 0
M  V30 24 H 3.775798 -2.226693 0.260155 0
M  V30 25 H 2.004659 -2.316423 -0.042965 0
M  V30 26 H 3.140977 -2.425063 -1.383107 0
M  V30 27 H 3.458980 -0.495826 -2.657243 0
M  V30 28 H 3.429231 1.953531 -2.945721 0
M  V30 29 H 2.897644 3.442476 -1.032503 0
M  V30 30 H 2.362231 2.479561 1.169176 0
M  V30 31 H 2.652773 0.496356 2.667429 0
M  V30 32 H 2.561696 -1.146121 2.048479 0
M  V30 33 H 0.327026 -0.231385 0.119380 0
M  V30 34 H -1.759029 0.870686 1.792029 0
M  V30 35 H -1.138414 2.664386 0.111544 0
M  V30 36 H -1.603744 3.565825 -2.142872 0
M  V30 37 H -2.606528 2.108714 -3.878699 0
M  V30 38 H -3.140695 -0.255326 -3.361029 0
M  V30 39 H -2.960013 -2.931351 0.234148 0
M  V30 40 H -1.306623 -2.407641 -0.056772 0
M  V30 41 H -3.487106 -0.728929 1.293374 0
M  V30 42 H -2.984799 -2.581427 2.745913 0
M  V30 43 H -1.235092 -2.345730 2.600528 0
M  V30 44 H -1.361344 -0.754777 4.017243 0
M  V30 END ATOM
M  V30 BEGIN BOND
M  V30 1 1 1 2
M  V30 2 2 2 3
M  V30 3 1 3 4
M  V30 4 2 4 5
M  V30 5 1 5 6
M  V30 6 2 6 7
M  V30 7 1 7 8
M  V30 8 1 8 9
M  V30 9 2 9 10
M  V30 10 1 9 11
M  V30 11 1 11 12
M  V30 12 1 12 13
M  V30 13 2 13 14
M  V30 14 1 14 15
M  V30 15 2 15 16
M  V30 16 1 16 17
M  V30 17 2 17 18
M  V30 18 1 18 19
M  V30 19 1 19 20
M  V30 20 1 20 21
M  V30 21 1 21 22
M  V30 22 1 22 23
M  V30 23 1 7 2
M  V30 24 1 21 12
M  V30 25 1 18 13
M  V30 26 1 1 24
M  V30 27 1 1 25
M  V30 28 1 1 26
M  V30 29 1 3 27
M  V30 30 1 4 28
M  V30 31 1 5 29
M  V30 32 1 6 30
M  V30 33 1 8 31
M  V30 34 1 8 32
M  V30 35 1 11 33
M  V30 36 1 12 34 CFG=1
M  V30 37 1 14 35
M  V30 38 1 15 36
M  V30 39 1 16 37
M  V30 40 1 17 38
M  V30 41 1 20 39
M  V30 42 1 20 40
M  V30 43 1 21 41 CFG=1
M  V30 44 1 22 42
M  V30 45 1 22 43
M  V30 46 1 23 44
M  V30 END BOND
M  V30 BEGIN COLLECTION
M  V30 MDLV30/STERAC1 ATOMS=(2 12 21)
M  V30 END COLLECTION
M  V30 END CTAB
M  END
>  <_CXSMILES_Data>  (757) 
|&1:11,20|

$$$$
OCNT-2313654
     RDKit          3D

 40 42  0  0  0  0  0  0  0  0999 V2000
   -5.0176   -1.3919    3.1786 C   0  0  0  0  0  0  0  0  0  0  0  0
   -3.9381   -0.8390    2.3849 N   0  0  0  0  0  0  0  0  0  0  0  0
   -4.1760   -0.2218    1.1879 C   0  0  0  0  0  0  0  0  0  0  0  0
   -3.2558   -0.0102    0.1634 C   0  0  0  0  0  0  0  0  0  0  0  0
   -1.8674   -0.4442    0.2588 C   0  0  0  0  0  0  0  0  0  0  0  0
   -1.5362   -1.4833    0.8251 O   0  0  0  0  0  0  0  0  0  0  0  0
   -0.9454    0.4259   -0.2922 N   0  0  0  0  0  0  0  0  0  0  0  0
    0.4996    0.1617   -0.2225 C   0  0  2  0  0  0  0  0  0  0  0  0
    1.3686    1.1606   -1.0179 C   0  0  0  0  0  0  0  0  0  0  0  0
    2.2564   -0.0461   -1.4475 C   0  0  1  0  0  0  0  0  0  0  0  0
    3.6042   -0.2778   -0.6234 C   0  0  0  0  0  0  0  0  0  0  0  0
    3.7441   -1.2240    0.4130 C   0  0  0  0  0  0  0  0  0  0  0  0
    4.9495   -1.3852    1.1053 C   0  0  0  0  0  0  0  0  0  0  0  0
    6.0440   -0.5992    0.7736 C   0  0  0  0  0  0  0  0  0  0  0  0
    7.1959   -0.7554    1.4383 F   0  0  0  0  0  0  0  0  0  0  0  0
    5.9576    0.3442   -0.2341 C   0  0  0  0  0  0  0  0  0  0  0  0
    4.7513    0.4913   -0.9120 C   0  0  0  0  0  0  0  0  0  0  0  0
    4.6792    1.4139   -1.8841 F   0  0  0  0  0  0  0  0  0  0  0  0
    1.0027   -0.9293   -1.1945 C   0  0  0  0  0  0  0  0  0  0  0  0
   -3.8987    0.6305   -0.9631 C   0  0  0  0  0  0  0  0  0  0  0  0
   -3.2893    0.9226   -2.2931 C   0  0  0  0  0  0  0  0  0  0  0  0
   -5.1736    0.9749   -0.7923 N   0  0  0  0  0  0  0  0  0  0  0  0
   -5.6683    0.4846    0.7011 S   0  0  0  0  0  0  0  0  0  0  0  0
   -5.5558   -2.1685    2.6253 H   0  0  0  0  0  0  0  0  0  0  0  0
   -4.6039   -1.8493    4.0830 H   0  0  0  0  0  0  0  0  0  0  0  0
   -5.7209   -0.6160    3.4977 H   0  0  0  0  0  0  0  0  0  0  0  0
   -3.0825   -1.4018    2.4266 H   0  0  0  0  0  0  0  0  0  0  0  0
   -1.2761    1.3529   -0.5300 H   0  0  0  0  0  0  0  0  0  0  0  0
    0.8404    0.0269    0.8117 H   0  0  0  0  0  0  0  0  0  0  0  0
    1.8584    1.9328   -0.4174 H   0  0  0  0  0  0  0  0  0  0  0  0
    0.8592    1.6462   -1.8596 H   0  0  0  0  0  0  0  0  0  0  0  0
    2.4950   -0.0121   -2.5210 H   0  0  0  0  0  0  0  0  0  0  0  0
    2.9018   -1.8520    0.6970 H   0  0  0  0  0  0  0  0  0  0  0  0
    5.0363   -2.1197    1.9005 H   0  0  0  0  0  0  0  0  0  0  0  0
    6.8120    0.9583   -0.4914 H   0  0  0  0  0  0  0  0  0  0  0  0
    1.1653   -1.9177   -0.7581 H   0  0  0  0  0  0  0  0  0  0  0  0
    0.3811   -1.0585   -2.0904 H   0  0  0  0  0  0  0  0  0  0  0  0
   -2.7359    1.8662   -2.2594 H   0  0  0  0  0  0  0  0  0  0  0  0
   -4.0555    1.0080   -3.0716 H   0  0  0  0  0  0  0  0  0  0  0  0
   -2.6057    0.1233   -2.5960 H   0  0  0  0  0  0  0  0  0  0  0  0
  1  2  1  0
  2  3  1  0
  3  4  2  0
  4  5  1  0
  5  6  2  0
  5  7  1  0
  7  8  1  0
  8  9  1  0
  9 10  1  0
 10 11  1  0
 11 12  1  0
 12 13  2  0
 13 14  1  0
 14 15  1  0
 14 16  2  0
 16 17  1  0
 17 18  1  0
 10 19  1  0
  4 20  1  0
 20 21  1  0
 20 22  2  0
 22 23  1  0
 23  3  1  0
 19  8  1  0
 17 11  2  0
  1 24  1  0
  1 25  1  0
  1 26  1  0
  2 27  1  0
  7 28  1  0
  8 29  1  1
  9 30  1  0
  9 31  1  0
 10 32  1  6
 12 33  1  0
 13 34  1  0
 16 35  1  0
 19 36  1  0
 19 37  1  0
 21 38  1  0
 21 39  1  0
 21 40  1  0
M  END
$$$$
OCNT-2313664
     RDKit          3D

  0  0  0  0  0  0  0  0  0  0999 V3000
M  V30 BEGIN CTAB
M  V30 COUNTS 47 50 0 0 0
M  V30 BEGIN ATOM
M  V30 1 O 3.634318 -2.238956 -1.126376 0
M  V30 2 C 3.253759 -1.391384 -0.326313 0
M  V30 3 N 3.848667 -0.154062 -0.165054 0
M  V30 4 C 4.983522 0.242439 -0.937587 0
M  V30 5 C 5.453568 1.671292 -0.929303 0
M  V30 6 C 4.808011 1.102169 -2.158154 0
M  V30 7 C 2.098983 -1.685759 0.565409 0
M  V30 8 C 1.854865 -3.019625 0.921819 0
M  V30 9 C 0.788790 -3.344390 1.763811 0
M  V30 10 C -0.053307 -2.340210 2.238664 0
M  V30 11 C 0.164113 -1.015079 1.846301 0
M  V30 12 S -0.906298 0.259410 2.459917 0
M  V30 13 O -0.251400 1.531003 2.256929 0
M  V30 14 O -1.347382 -0.149703 3.775537 0
M  V30 15 N -2.257105 0.166667 1.484731 0
M  V30 16 C -2.303254 0.306514 0.014253 0 CFG=2
M  V30 17 C -1.463489 1.448461 -0.562305 0
M  V30 18 C -2.307787 2.688033 -0.305900 0
M  V30 19 C -3.726087 2.235967 -0.630752 0
M  V30 20 C -3.742197 0.727302 -0.369264 0 CFG=1
M  V30 21 C -4.049617 -0.113735 -1.599483 0
M  V30 22 N -3.417326 -1.400703 -1.296288 0
M  V30 23 C -2.115866 -1.049423 -0.695118 0
M  V30 24 C 1.245533 -0.677319 1.025194 0
M  V30 25 H 3.601509 0.418827 0.632097 0
M  V30 26 H 5.754945 -0.524140 -0.987376 0
M  V30 27 H 6.522347 1.850714 -0.955819 0
M  V30 28 H 4.894772 2.405065 -0.361285 0
M  V30 29 H 3.808376 1.432831 -2.413421 0
M  V30 30 H 5.435090 0.886110 -3.015432 0
M  V30 31 H 2.506467 -3.809809 0.550376 0
M  V30 32 H 0.620264 -4.380606 2.049278 0
M  V30 33 H -0.875349 -2.596301 2.904246 0
M  V30 34 H -3.038046 -0.305095 1.940227 0
M  V30 35 H -0.460279 1.540939 -0.148826 0
M  V30 36 H -1.339991 1.327799 -1.646891 0
M  V30 37 H -1.996468 3.536823 -0.921793 0
M  V30 38 H -2.239136 2.990622 0.745225 0
M  V30 39 H -4.451962 2.760261 -0.000243 0
M  V30 40 H -3.974937 2.467022 -1.672621 0
M  V30 41 H -4.466742 0.489726 0.421312 0
M  V30 42 H -3.612627 0.304862 -2.513724 0
M  V30 43 H -5.126153 -0.225869 -1.761027 0
M  V30 44 H -3.981908 -1.884956 -0.596780 0
M  V30 45 H -1.813722 -1.853866 -0.020077 0
M  V30 46 H -1.361265 -0.987750 -1.487291 0
M  V30 47 H 1.401800 0.357882 0.734838 0
M  V30 END ATOM
M  V30 BEGIN BOND
M  V30 1 2 1 2
M  V30 2 1 2 3
M  V30 3 1 3 4
M  V30 4 1 4 5
M  V30 5 1 5 6
M  V30 6 1 2 7
M  V30 7 1 7 8
M  V30 8 2 8 9
M  V30 9 1 9 10
M  V30 10 2 10 11
M  V30 11 1 11 12
M  V30 12 2 12 13
M  V30 13 2 12 14
M  V30 14 1 12 15
M  V30 15 1 16 15 CFG=1
M  V30 16 1 16 17
M  V30 17 1 17 18
M  V30 18 1 18 19
M  V30 19 1 19 20
M  V30 20 1 20 21
M  V30 21 1 21 22
M  V30 22 1 22 23
M  V30 23 1 11 24
M  V30 24 1 6 4
M  V30 25 2 24 7
M  V30 26 1 20 16
M  V30 27 1 23 16
M  V30 28 1 3 25
M  V30 29 1 4 26
M  V30 30 1 5 27
M  V30 31 1 5 28
M  V30 32 1 6 29
M  V30 33 1 6 30
M  V30 34 1 8 31
M  V30 35 1 9 32
M  V30 36 1 10 33
M  V30 37 1 15 34
M  V30 38 1 17 35
M  V30 39 1 17 36
M  V30 40 1 18 37
M  V30 41 1 18 38
M  V30 42 1 19 39
M  V30 43 1 19 40
M  V30 44 1 20 41 CFG=1
M  V30 45 1 21 42
M  V30 46 1 21 43
M  V30 47 1 22 44
M  V30 48 1 23 45
M  V30 49 1 23 46
M  V30 50 1 24 47
M  V30 END BOND
M  V30 BEGIN COLLECTION
M  V30 MDLV30/STERAC1 ATOMS=(2 16 20)
M  V30 END COLLECTION
M  V30 END CTAB
M  END
>  <_CXSMILES_Data>  (759) 
|&1:15,19|

$$$$
OCNT-2313666
     RDKit          3D

 43 45  0  0  0  0  0  0  0  0999 V2000
   -1.3019   -0.3817   -1.3915 O   0  0  0  0  0  0  0  0  0  0  0  0
   -1.7549    0.5315   -0.7070 C   0  0  0  0  0  0  0  0  0  0  0  0
   -1.0158    1.6576   -0.4161 N   0  0  0  0  0  0  0  0  0  0  0  0
    0.4068    1.7216   -0.7467 C   0  0  0  0  0  0  0  0  0  0  0  0
    1.3053    1.1004    0.3371 C   0  0  0  0  0  0  0  0  0  0  0  0
    1.0991    1.8059    1.4948 F   0  0  0  0  0  0  0  0  0  0  0  0
    0.9225   -0.1743    0.6057 F   0  0  0  0  0  0  0  0  0  0  0  0
    2.8232    1.1389    0.0120 C   0  0  0  0  0  0  0  0  0  0  0  0
    3.2339    2.5113   -0.1816 O   0  0  0  0  0  0  0  0  0  0  0  0
    3.6607    0.5824    1.1911 C   0  0  0  0  0  0  0  0  0  0  0  0
    4.0081   -0.8912    1.0162 C   0  0  0  0  0  0  0  0  0  0  0  0
    4.8494   -1.1240   -0.2392 C   0  0  0  0  0  0  0  0  0  0  0  0
    4.5635   -0.1176   -1.3546 C   0  0  0  0  0  0  0  0  0  0  0  0
    3.1226    0.3834   -1.3026 C   0  0  0  0  0  0  0  0  0  0  0  0
   -3.0803    0.5052   -0.1489 C   0  0  0  0  0  0  0  0  0  0  0  0
   -3.8431    1.4507    0.5317 C   0  0  0  0  0  0  0  0  0  0  0  0
   -5.0950    0.9699    0.8804 N   0  0  0  0  0  0  0  0  0  0  0  0
   -5.0981   -0.2488    0.4129 C   0  0  0  0  0  0  0  0  0  0  0  0
   -6.0371   -1.3854    0.3737 C   0  0  0  0  0  0  0  0  0  0  0  0
   -5.0984   -2.5501   -0.0310 C   0  0  0  0  0  0  0  0  0  0  0  0
   -3.8853   -1.9014   -0.7255 C   0  0  0  0  0  0  0  0  0  0  0  0
   -3.9255   -0.5523   -0.2021 N   0  0  0  0  0  0  0  0  0  0  0  0
   -1.3524    2.2789    0.3062 H   0  0  0  0  0  0  0  0  0  0  0  0
    0.6404    2.7843   -0.8663 H   0  0  0  0  0  0  0  0  0  0  0  0
    0.5537    1.2206   -1.7081 H   0  0  0  0  0  0  0  0  0  0  0  0
    3.1296    2.9676    0.6753 H   0  0  0  0  0  0  0  0  0  0  0  0
    4.5934    1.1540    1.2927 H   0  0  0  0  0  0  0  0  0  0  0  0
    3.1307    0.7228    2.1406 H   0  0  0  0  0  0  0  0  0  0  0  0
    4.5511   -1.2595    1.8940 H   0  0  0  0  0  0  0  0  0  0  0  0
    3.0852   -1.4804    0.9531 H   0  0  0  0  0  0  0  0  0  0  0  0
    5.9158   -1.0764    0.0124 H   0  0  0  0  0  0  0  0  0  0  0  0
    4.6663   -2.1431   -0.6009 H   0  0  0  0  0  0  0  0  0  0  0  0
    5.2486    0.7346   -1.2641 H   0  0  0  0  0  0  0  0  0  0  0  0
    4.7693   -0.5803   -2.3266 H   0  0  0  0  0  0  0  0  0  0  0  0
    2.4551   -0.4810   -1.4108 H   0  0  0  0  0  0  0  0  0  0  0  0
    2.9500    1.0392   -2.1647 H   0  0  0  0  0  0  0  0  0  0  0  0
   -3.5680    2.4648    0.7902 H   0  0  0  0  0  0  0  0  0  0  0  0
   -6.5167   -1.5734    1.3376 H   0  0  0  0  0  0  0  0  0  0  0  0
   -6.8043   -1.2228   -0.3898 H   0  0  0  0  0  0  0  0  0  0  0  0
   -5.5975   -3.2911   -0.6627 H   0  0  0  0  0  0  0  0  0  0  0  0
   -4.7588   -3.0684    0.8755 H   0  0  0  0  0  0  0  0  0  0  0  0
   -4.0100   -1.8433   -1.8104 H   0  0  0  0  0  0  0  0  0  0  0  0
   -2.9413   -2.3793   -0.4545 H   0  0  0  0  0  0  0  0  0  0  0  0
  1  2  2  0
  2  3  1  0
  3  4  1  0
  4  5  1  0
  5  6  1  0
  5  7  1  0
  5  8  1  0
  8  9  1  0
  8 10  1  0
 10 11  1  0
 11 12  1  0
 12 13  1  0
 13 14  1  0
  2 15  1  0
 15 16  2  0
 16 17  1  0
 17 18  2  0
 18 19  1  0
 19 20  1  0
 20 21  1  0
 21 22  1  0
 14  8  1  0
 22 15  1  0
 22 18  1  0
  3 23  1  0
  4 24  1  0
  4 25  1  0
  9 26  1  0
 10 27  1  0
 10 28  1  0
 11 29  1  0
 11 30  1  0
 12 31  1  0
 12 32  1  0
 13 33  1  0
 13 34  1  0
 14 35  1  0
 14 36  1  0
 16 37  1  0
 19 38  1  0
 19 39  1  0
 20 40  1  0
 20 41  1  0
 21 42  1  0
 21 43  1  0
M  END
$$$$
OCNT-2313669
     RDKit          3D

  0  0  0  0  0  0  0  0  0  0999 V3000
M  V30 BEGIN CTAB
M  V30 COUNTS 42 44 0 0 0
M  V30 BEGIN ATOM
M  V30 1 C -4.791839 -1.058490 0.965841 0
M  V30 2 C -4.686551 -0.670663 -0.505791 0 CFG=1
M  V30 3 C -4.861476 0.842319 -0.732148 0
M  V30 4 N -3.706356 1.611512 -0.249378 0
M  V30 5 C -2.494044 1.097998 -0.907311 0
M  V30 6 C -2.295671 -0.435444 -0.803166 0 CFG=1
M  V30 7 C -1.525454 -0.884996 0.469893 0
M  V30 8 O -1.896507 -1.798578 1.204032 0
M  V30 9 N -0.322287 -0.229911 0.680393 0
M  V30 10 C 0.580469 -0.668640 1.731767 0
M  V30 11 C 1.626458 0.389320 2.090725 0
M  V30 12 C 2.527174 0.751574 0.946505 0
M  V30 13 C 2.497812 1.931627 0.227151 0
M  V30 14 N 3.479325 1.881416 -0.724452 0
M  V30 15 C 4.151451 0.683401 -0.651951 0
M  V30 16 C 5.214970 0.189691 -1.416415 0
M  V30 17 Cl 5.892742 1.112327 -2.697856 0
M  V30 18 C 5.716343 -1.077795 -1.114335 0
M  V30 19 C 5.169234 -1.826530 -0.074849 0
M  V30 20 C 4.105728 -1.322533 0.684732 0
M  V30 21 C 3.581500 -0.045155 0.393356 0
M  V30 22 O -3.486627 -1.160872 -1.125680 0
M  V30 23 H -5.795674 -0.846307 1.348420 0
M  V30 24 H -4.591425 -2.126632 1.097439 0
M  V30 25 H -4.081818 -0.508615 1.589926 0
M  V30 26 H -5.507113 -1.178812 -1.026614 0
M  V30 27 H -5.766457 1.197042 -0.226931 0
M  V30 28 H -4.990944 1.035838 -1.804565 0
M  V30 29 H -3.833767 2.594902 -0.485752 0
M  V30 30 H -1.631623 1.643549 -0.512406 0
M  V30 31 H -2.561030 1.358740 -1.972205 0
M  V30 32 H -1.600839 -0.705930 -1.611216 0
M  V30 33 H 0.111396 0.215830 -0.118470 0
M  V30 34 H 1.053803 -1.594259 1.385417 0
M  V30 35 H -0.009211 -0.914072 2.622384 0
M  V30 36 H 2.239518 0.020752 2.922216 0
M  V30 37 H 1.118501 1.292845 2.451691 0
M  V30 38 H 1.868331 2.807222 0.321869 0
M  V30 39 H 3.697962 2.613472 -1.387799 0
M  V30 40 H 6.541894 -1.487298 -1.691356 0
M  V30 41 H 5.570569 -2.811834 0.151389 0
M  V30 42 H 3.691534 -1.918014 1.493863 0
M  V30 END ATOM
M  V30 BEGIN BOND
M  V30 1 1 1 2
M  V30 2 1 2 3
M  V30 3 1 3 4
M  V30 4 1 4 5
M  V30 5 1 5 6
M  V30 6 1 6 7
M  V30 7 2 7 8
M  V30 8 1 7 9
M  V30 9 1 9 10
M  V30 10 1 10 11
M  V30 11 1 11 12
M  V30 12 2 12 13
M  V30 13 1 13 14
M  V30 14 1 14 15
M  V30 15 2 15 16
M  V30 16 1 16 17
M  V30 17 1 16 18
M  V30 18 2 18 19
M  V30 19 1 19 20
M  V30 20 2 20 21
M  V30 21 1 6 22
M  V30 22 1 22 2
M  V30 23 1 21 12
M  V30 24 1 21 15
M  V30 25 1 1 23
M  V30 26 1 1 24
M  V30 27 1 1 25
M  V30 28 1 2 26 CFG=3
M  V30 29 1 3 27
M  V30 30 1 3 28
M  V30 31 1 4 29
M  V30 32 1 5 30
M  V30 33 1 5 31
M  V30 34 1 6 32 CFG=3
M  V30 35 1 9 33
M  V30 36 1 10 34
M  V30 37 1 10 35
M  V30 38 1 11 36
M  V30 39 1 11 37
M  V30 40 1 13 38
M  V30 41 1 14 39
M  V30 42 1 18 40
M  V30 43 1 19 41
M  V30 44 1 20 42
M  V30 END BOND
M  V30 BEGIN COLLECTION
M  V30 MDLV30/STERAC1 ATOMS=(2 2 6)
M  V30 END COLLECTION
M  V30 END CTAB
M  END
>  <_CXSMILES_Data>  (761) 
|&1:1,5|

$$$$
OCNT-2313683
     RDKit          3D

 47 49  0  0  0  0  0  0  0  0999 V2000
   -1.6104    4.5958   -0.9756 C   0  0  0  0  0  0  0  0  0  0  0  0
   -1.3377    3.2097   -0.5270 C   0  0  0  0  0  0  0  0  0  0  0  0
   -1.9684    2.1769   -1.0905 N   0  0  0  0  0  0  0  0  0  0  0  0
   -1.4843    1.0956   -0.4490 N   0  0  0  0  0  0  0  0  0  0  0  0
   -2.0440   -0.2006   -0.7908 C   0  0  0  0  0  0  0  0  0  0  0  0
   -3.5120   -0.3316   -0.3488 C   0  0  0  0  0  0  0  0  0  0  0  0
   -3.9993   -1.6570   -0.9115 C   0  0  0  0  0  0  0  0  0  0  0  0
   -3.1737   -1.8345   -2.4875 S   0  0  0  0  0  0  0  0  0  0  0  0
   -4.1059   -1.5044   -3.5439 O   0  0  0  0  0  0  0  0  0  0  0  0
   -2.4333   -3.0798   -2.4663 O   0  0  0  0  0  0  0  0  0  0  0  0
   -2.0169   -0.4960   -2.2893 C   0  0  0  0  0  0  0  0  0  0  0  0
   -0.5570    1.4082    0.5239 C   0  0  0  0  0  0  0  0  0  0  0  0
    0.0884    0.4691    1.3120 N   0  0  0  0  0  0  0  0  0  0  0  0
    1.0140    0.8069    2.2945 C   0  0  0  0  0  0  0  0  0  0  0  0
    1.3214    1.9431    2.6407 O   0  0  0  0  0  0  0  0  0  0  0  0
    1.6804   -0.4281    2.9310 C   0  0  0  0  0  0  0  0  0  0  0  0
    2.9522   -0.7943    2.2523 N   0  0  0  0  0  0  0  0  0  0  0  0
    4.0668    0.1151    2.5572 C   0  0  0  0  0  0  0  0  0  0  0  0
    2.8087   -1.2415    0.9323 C   0  0  0  0  0  0  0  0  0  0  0  0
    3.3927   -0.5890   -0.1658 C   0  0  0  0  0  0  0  0  0  0  0  0
    3.1853   -1.0390   -1.4740 C   0  0  0  0  0  0  0  0  0  0  0  0
    2.3931   -2.1574   -1.7027 C   0  0  0  0  0  0  0  0  0  0  0  0
    2.1815   -2.5595   -2.9644 F   0  0  0  0  0  0  0  0  0  0  0  0
    1.8213   -2.8388   -0.6347 C   0  0  0  0  0  0  0  0  0  0  0  0
    0.8290   -4.2228   -0.8933 Cl  0  0  0  0  0  0  0  0  0  0  0  0
    2.0376   -2.3900    0.6699 C   0  0  0  0  0  0  0  0  0  0  0  0
   -0.4608    2.7848    0.4937 C   0  0  0  0  0  0  0  0  0  0  0  0
   -1.7191    4.6407   -2.0632 H   0  0  0  0  0  0  0  0  0  0  0  0
   -0.7947    5.2678   -0.6902 H   0  0  0  0  0  0  0  0  0  0  0  0
   -2.5351    4.9671   -0.5195 H   0  0  0  0  0  0  0  0  0  0  0  0
   -1.4564   -0.9713   -0.2786 H   0  0  0  0  0  0  0  0  0  0  0  0
   -3.6099   -0.2976    0.7413 H   0  0  0  0  0  0  0  0  0  0  0  0
   -4.1156    0.4864   -0.7598 H   0  0  0  0  0  0  0  0  0  0  0  0
   -5.0786   -1.6808   -1.0552 H   0  0  0  0  0  0  0  0  0  0  0  0
   -3.6864   -2.4923   -0.2782 H   0  0  0  0  0  0  0  0  0  0  0  0
   -1.0287   -0.8112   -2.6308 H   0  0  0  0  0  0  0  0  0  0  0  0
   -2.3669    0.3360   -2.9046 H   0  0  0  0  0  0  0  0  0  0  0  0
   -0.0376   -0.5149    1.1174 H   0  0  0  0  0  0  0  0  0  0  0  0
    0.9777   -1.2713    2.9417 H   0  0  0  0  0  0  0  0  0  0  0  0
    1.8703   -0.1952    3.9869 H   0  0  0  0  0  0  0  0  0  0  0  0
    5.0150   -0.2879    2.1906 H   0  0  0  0  0  0  0  0  0  0  0  0
    4.1680    0.2236    3.6438 H   0  0  0  0  0  0  0  0  0  0  0  0
    3.9093    1.1132    2.1299 H   0  0  0  0  0  0  0  0  0  0  0  0
    4.0016    0.3033   -0.0309 H   0  0  0  0  0  0  0  0  0  0  0  0
    3.6340   -0.5136   -2.3147 H   0  0  0  0  0  0  0  0  0  0  0  0
    1.6161   -2.9563    1.4964 H   0  0  0  0  0  0  0  0  0  0  0  0
    0.1680    3.4134    1.1113 H   0  0  0  0  0  0  0  0  0  0  0  0
  1  2  1  0
  2  3  2  0
  3  4  1  0
  4  5  1  0
  5  6  1  0
  6  7  1  0
  7  8  1  0
  8  9  2  0
  8 10  2  0
  8 11  1  0
  4 12  1  0
 12 13  1  0
 13 14  1  0
 14 15  2  0
 14 16  1  0
 16 17  1  0
 17 18  1  0
 17 19  1  0
 19 20  1  0
 20 21  2  0
 21 22  1  0
 22 23  1  0
 22 24  2  0
 24 25  1  0
 24 26  1  0
 12 27  2  0
 27  2  1  0
 11  5  1  0
 26 19  2  0
  1 28  1  0
  1 29  1  0
  1 30  1  0
  5 31  1  0
  6 32  1  0
  6 33  1  0
  7 34  1  0
  7 35  1  0
 11 36  1  0
 11 37  1  0
 13 38  1  0
 16 39  1  0
 16 40  1  0
 18 41  1  0
 18 42  1  0
 18 43  1  0
 20 44  1  0
 21 45  1  0
 26 46  1  0
 27 47  1  0
M  END
$$$$
OCNT-2313726
     RDKit          3D

 39 41  0  0  0  0  0  0  0  0999 V2000
    5.4000    1.6897    0.2687 C   0  0  0  0  0  0  0  0  0  0  0  0
    4.1349    0.8928    0.1443 C   0  0  0  0  0  0  0  0  0  0  0  0
    2.9049    1.4898    0.4238 C   0  0  0  0  0  0  0  0  0  0  0  0
    1.7116    0.8622    0.3427 N   0  0  0  0  0  0  0  0  0  0  0  0
    1.7480   -0.4422   -0.0424 C   0  0  0  0  0  0  0  0  0  0  0  0
    0.4240   -1.1380   -0.1348 C   0  0  0  0  0  0  0  0  0  0  0  0
    0.3212   -2.3121   -0.4759 O   0  0  0  0  0  0  0  0  0  0  0  0
   -0.6578   -0.3471    0.1775 N   0  0  0  0  0  0  0  0  0  0  0  0
   -2.0085   -0.8603    0.2055 C   0  0  1  0  0  0  0  0  0  0  0  0
   -3.0263    0.1755    0.5854 C   0  0  0  0  0  0  0  0  0  0  0  0
   -2.9736    1.1001    1.6192 C   0  0  0  0  0  0  0  0  0  0  0  0
   -4.0662    1.9483    1.8122 C   0  0  0  0  0  0  0  0  0  0  0  0
   -5.1977    1.8542    0.9883 C   0  0  0  0  0  0  0  0  0  0  0  0
   -5.2538    0.9086   -0.0372 C   0  0  0  0  0  0  0  0  0  0  0  0
   -4.1608    0.0789   -0.2292 C   0  0  0  0  0  0  0  0  0  0  0  0
   -4.0222   -1.0268   -1.2294 C   0  0  0  0  0  0  0  0  0  0  0  0
   -2.5086   -1.3004   -1.2033 C   0  0  2  0  0  0  0  0  0  0  0  0
   -2.2470   -2.6814   -1.4529 O   0  0  0  0  0  0  0  0  0  0  0  0
    2.9151   -1.1316   -0.3431 C   0  0  0  0  0  0  0  0  0  0  0  0
    4.1375   -0.4569   -0.2498 C   0  0  0  0  0  0  0  0  0  0  0  0
    5.4133   -1.1834   -0.5712 C   0  0  0  0  0  0  0  0  0  0  0  0
    5.9167    1.7366   -0.6951 H   0  0  0  0  0  0  0  0  0  0  0  0
    5.1975    2.7187    0.5847 H   0  0  0  0  0  0  0  0  0  0  0  0
    6.0615    1.2396    1.0156 H   0  0  0  0  0  0  0  0  0  0  0  0
    2.8447    2.5312    0.7326 H   0  0  0  0  0  0  0  0  0  0  0  0
   -0.4609    0.6181    0.4292 H   0  0  0  0  0  0  0  0  0  0  0  0
   -2.0417   -1.7034    0.9067 H   0  0  0  0  0  0  0  0  0  0  0  0
   -2.1091    1.1628    2.2730 H   0  0  0  0  0  0  0  0  0  0  0  0
   -4.0452    2.6825    2.6141 H   0  0  0  0  0  0  0  0  0  0  0  0
   -6.0427    2.5173    1.1574 H   0  0  0  0  0  0  0  0  0  0  0  0
   -6.1369    0.8255   -0.6631 H   0  0  0  0  0  0  0  0  0  0  0  0
   -4.3442   -0.7170   -2.2285 H   0  0  0  0  0  0  0  0  0  0  0  0
   -4.6010   -1.9042   -0.9216 H   0  0  0  0  0  0  0  0  0  0  0  0
   -2.0168   -0.7146   -1.9915 H   0  0  0  0  0  0  0  0  0  0  0  0
   -1.2987   -2.8187   -1.2298 H   0  0  0  0  0  0  0  0  0  0  0  0
    2.8675   -2.1742   -0.6440 H   0  0  0  0  0  0  0  0  0  0  0  0
    6.0739   -1.1960    0.3015 H   0  0  0  0  0  0  0  0  0  0  0  0
    5.9248   -0.7005   -1.4097 H   0  0  0  0  0  0  0  0  0  0  0  0
    5.2223   -2.2237   -0.8555 H   0  0  0  0  0  0  0  0  0  0  0  0
  1  2  1  0
  2  3  1  0
  3  4  2  0
  4  5  1  0
  5  6  1  0
  6  7  2  0
  6  8  1  0
  8  9  1  0
  9 10  1  0
 10 11  2  0
 11 12  1  0
 12 13  2  0
 13 14  1  0
 14 15  2  0
 15 16  1  0
 16 17  1  0
 17 18  1  0
  5 19  2  0
 19 20  1  0
 20 21  1  0
 20  2  2  0
 17  9  1  0
 15 10  1  0
  1 22  1  0
  1 23  1  0
  1 24  1  0
  3 25  1  0
  8 26  1  0
  9 27  1  1
 11 28  1  0
 12 29  1  0
 13 30  1  0
 14 31  1  0
 16 32  1  0
 16 33  1  0
 17 34  1  6
 18 35  1  0
 19 36  1  0
 21 37  1  0
 21 38  1  0
 21 39  1  0
M  END
$$$$
OCNT-2313749
     RDKit          3D

 41 44  0  0  0  0  0  0  0  0999 V2000
    0.6614   -1.9728    1.6115 O   0  0  0  0  0  0  0  0  0  0  0  0
    0.9209   -1.2172    0.6758 C   0  0  0  0  0  0  0  0  0  0  0  0
    2.2808   -0.8173    0.4125 C   0  0  0  0  0  0  0  0  0  0  0  0
    3.0506   -0.8313   -0.7354 C   0  0  0  0  0  0  0  0  0  0  0  0
    2.6142   -1.3962   -2.2835 Cl  0  0  0  0  0  0  0  0  0  0  0  0
    4.3451   -0.3235   -0.4151 C   0  0  0  0  0  0  0  0  0  0  0  0
    5.5227   -0.0771   -1.1530 C   0  0  0  0  0  0  0  0  0  0  0  0
    6.6453    0.4297   -0.4918 C   0  0  0  0  0  0  0  0  0  0  0  0
    8.0835    0.7409   -1.3875 Cl  0  0  0  0  0  0  0  0  0  0  0  0
    6.6218    0.6852    0.8768 C   0  0  0  0  0  0  0  0  0  0  0  0
    5.4703    0.4384    1.6307 C   0  0  0  0  0  0  0  0  0  0  0  0
    4.3518   -0.0636    0.9553 C   0  0  0  0  0  0  0  0  0  0  0  0
    3.1133   -0.4167    1.4346 N   0  0  0  0  0  0  0  0  0  0  0  0
   -0.0878   -0.6564   -0.0804 N   0  0  0  0  0  0  0  0  0  0  0  0
   -0.0047    0.4730   -0.9895 C   0  0  0  0  0  0  0  0  0  0  0  0
   -1.4111    1.0632   -0.9887 C   0  0  0  0  0  0  0  0  0  0  0  0
   -2.3155   -0.1727   -0.8336 C   0  0  0  0  0  0  0  0  0  0  0  0
   -2.3717   -0.8284   -2.1097 O   0  0  0  0  0  0  0  0  0  0  0  0
   -3.7409    0.1068   -0.3823 C   0  0  0  0  0  0  0  0  0  0  0  0
   -4.3907    1.3071   -0.7260 C   0  0  0  0  0  0  0  0  0  0  0  0
   -5.7109    1.5465   -0.3362 C   0  0  0  0  0  0  0  0  0  0  0  0
   -6.3987    0.5828    0.3872 C   0  0  0  0  0  0  0  0  0  0  0  0
   -7.6647    0.8122    0.7582 F   0  0  0  0  0  0  0  0  0  0  0  0
   -5.7938   -0.6205    0.7209 C   0  0  0  0  0  0  0  0  0  0  0  0
   -4.4738   -0.8615    0.3315 C   0  0  0  0  0  0  0  0  0  0  0  0
   -1.4781   -1.0283    0.1496 C   0  0  0  0  0  0  0  0  0  0  0  0
    5.5537   -0.2779   -2.2199 H   0  0  0  0  0  0  0  0  0  0  0  0
    7.5074    1.0757    1.3730 H   0  0  0  0  0  0  0  0  0  0  0  0
    5.4543    0.6271    2.6998 H   0  0  0  0  0  0  0  0  0  0  0  0
    2.8331   -0.3818    2.4064 H   0  0  0  0  0  0  0  0  0  0  0  0
    0.7507    1.1964   -0.6715 H   0  0  0  0  0  0  0  0  0  0  0  0
    0.2431    0.0972   -1.9858 H   0  0  0  0  0  0  0  0  0  0  0  0
   -1.5230    1.7393   -0.1314 H   0  0  0  0  0  0  0  0  0  0  0  0
   -1.5932    1.6274   -1.9093 H   0  0  0  0  0  0  0  0  0  0  0  0
   -3.2974   -1.0624   -2.2957 H   0  0  0  0  0  0  0  0  0  0  0  0
   -3.8813    2.0711   -1.3097 H   0  0  0  0  0  0  0  0  0  0  0  0
   -6.2070    2.4759   -0.5982 H   0  0  0  0  0  0  0  0  0  0  0  0
   -6.3533   -1.3662    1.2772 H   0  0  0  0  0  0  0  0  0  0  0  0
   -4.0299   -1.8213    0.5904 H   0  0  0  0  0  0  0  0  0  0  0  0
   -1.7077   -0.7978    1.1970 H   0  0  0  0  0  0  0  0  0  0  0  0
   -1.5891   -2.1051   -0.0183 H   0  0  0  0  0  0  0  0  0  0  0  0
  1  2  2  0
  2  3  1  0
  3  4  2  0
  4  5  1  0
  4  6  1  0
  6  7  2  0
  7  8  1  0
  8  9  1  0
  8 10  2  0
 10 11  1  0
 11 12  2  0
 12 13  1  0
  2 14  1  0
 14 15  1  0
 15 16  1  0
 16 17  1  0
 17 18  1  0
 17 19  1  0
 19 20  1  0
 20 21  2  0
 21 22  1  0
 22 23  1  0
 22 24  2  0
 24 25  1  0
 17 26  1  0
 13  3  1  0
 26 14  1  0
 12  6  1  0
 25 19  2  0
  7 27  1  0
 10 28  1  0
 11 29  1  0
 13 30  1  0
 15 31  1  0
 15 32  1  0
 16 33  1  0
 16 34  1  0
 18 35  1  0
 20 36  1  0
 21 37  1  0
 24 38  1  0
 25 39  1  0
 26 40  1  0
 26 41  1  0
M  END
$$$$
OCNT-2313756
     RDKit          3D

 47 50  0  0  0  0  0  0  0  0999 V2000
    2.9184   -0.2097   -2.2479 O   0  0  0  0  0  0  0  0  0  0  0  0
    2.5603   -0.0287   -1.0812 C   0  0  0  0  0  0  0  0  0  0  0  0
    3.5344    0.2357   -0.0372 C   0  0  0  0  0  0  0  0  0  0  0  0
    4.8770   -0.0413    0.0346 C   0  0  0  0  0  0  0  0  0  0  0  0
    5.9299   -0.7048   -0.7567 C   0  0  0  0  0  0  0  0  0  0  0  0
    7.0912   -0.8136    0.2870 C   0  0  0  0  0  0  0  0  0  0  0  0
    6.8140    0.2491    1.4025 C   0  0  0  0  0  0  0  0  0  0  0  0
    5.3704    0.4945    1.2348 C   0  0  0  0  0  0  0  0  0  0  0  0
    4.3245    1.1029    1.8620 C   0  0  0  0  0  0  0  0  0  0  0  0
    3.1991    0.9643    1.0921 O   0  0  0  0  0  0  0  0  0  0  0  0
    1.1964   -0.0519   -0.7472 N   0  0  0  0  0  0  0  0  0  0  0  0
    0.7182   -0.5968    0.5271 C   0  0  0  0  0  0  0  0  0  0  0  0
   -0.7081   -0.1220    0.8573 C   0  0  0  0  0  0  0  0  0  0  0  0
   -1.6675   -0.4083   -0.2353 N   0  0  0  0  0  0  0  0  0  0  0  0
   -3.0093    0.0804    0.1372 C   0  0  0  0  0  0  0  0  0  0  0  0
   -4.1176   -0.4000   -0.8155 C   0  0  0  0  0  0  0  0  0  0  0  0
   -5.4870   -0.0002   -0.3223 C   0  0  0  0  0  0  0  0  0  0  0  0
   -6.2320   -0.8584    0.4903 C   0  0  0  0  0  0  0  0  0  0  0  0
   -7.4767   -0.4390    0.9345 C   0  0  0  0  0  0  0  0  0  0  0  0
   -8.0184    0.7600    0.6323 N   0  0  0  0  0  0  0  0  0  0  0  0
   -7.2815    1.5752   -0.1515 C   0  0  0  0  0  0  0  0  0  0  0  0
   -6.0278    1.2471   -0.6449 C   0  0  0  0  0  0  0  0  0  0  0  0
   -1.1738    0.2191   -1.4819 C   0  0  0  0  0  0  0  0  0  0  0  0
    0.2531   -0.2319   -1.8488 C   0  0  0  0  0  0  0  0  0  0  0  0
    5.6337   -1.6915   -1.1226 H   0  0  0  0  0  0  0  0  0  0  0  0
    6.2331   -0.0774   -1.6010 H   0  0  0  0  0  0  0  0  0  0  0  0
    8.0755   -0.6837   -0.1736 H   0  0  0  0  0  0  0  0  0  0  0  0
    7.0689   -1.8145    0.7383 H   0  0  0  0  0  0  0  0  0  0  0  0
    7.0703   -0.1403    2.3914 H   0  0  0  0  0  0  0  0  0  0  0  0
    7.3870    1.1618    1.2097 H   0  0  0  0  0  0  0  0  0  0  0  0
    4.1979    1.6541    2.7829 H   0  0  0  0  0  0  0  0  0  0  0  0
    1.3777   -0.3498    1.3583 H   0  0  0  0  0  0  0  0  0  0  0  0
    0.7376   -1.6905    0.4329 H   0  0  0  0  0  0  0  0  0  0  0  0
   -1.0316   -0.6315    1.7729 H   0  0  0  0  0  0  0  0  0  0  0  0
   -0.6857    0.9556    1.0685 H   0  0  0  0  0  0  0  0  0  0  0  0
   -3.2505   -0.2949    1.1411 H   0  0  0  0  0  0  0  0  0  0  0  0
   -3.0186    1.1766    0.2067 H   0  0  0  0  0  0  0  0  0  0  0  0
   -4.0753   -1.4916   -0.9227 H   0  0  0  0  0  0  0  0  0  0  0  0
   -3.9777    0.0105   -1.8224 H   0  0  0  0  0  0  0  0  0  0  0  0
   -5.8559   -1.8355    0.7751 H   0  0  0  0  0  0  0  0  0  0  0  0
   -8.0885   -1.0768    1.5660 H   0  0  0  0  0  0  0  0  0  0  0  0
   -7.7391    2.5334   -0.3807 H   0  0  0  0  0  0  0  0  0  0  0  0
   -5.4899    1.9533   -1.2684 H   0  0  0  0  0  0  0  0  0  0  0  0
   -1.1846    1.3126   -1.3814 H   0  0  0  0  0  0  0  0  0  0  0  0
   -1.8250   -0.0411   -2.3229 H   0  0  0  0  0  0  0  0  0  0  0  0
    0.5943    0.3348   -2.7229 H   0  0  0  0  0  0  0  0  0  0  0  0
    0.2591   -1.2950   -2.1213 H   0  0  0  0  0  0  0  0  0  0  0  0
  1  2  2  0
  2  3  1  0
  3  4  2  0
  4  5  1  0
  5  6  1  0
  6  7  1  0
  7  8  1  0
  8  9  2  0
  9 10  1  0
  2 11  1  0
 11 12  1  0
 12 13  1  0
 13 14  1  0
 14 15  1  0
 15 16  1  0
 16 17  1  0
 17 18  2  0
 18 19  1  0
 19 20  2  0
 20 21  1  0
 21 22  2  0
 14 23  1  0
 23 24  1  0
 10  3  1  0
 24 11  1  0
  8  4  1  0
 22 17  1  0
  5 25  1  0
  5 26  1  0
  6 27  1  0
  6 28  1  0
  7 29  1  0
  7 30  1  0
  9 31  1  0
 12 32  1  0
 12 33  1  0
 13 34  1  0
 13 35  1  0
 15 36  1  0
 15 37  1  0
 16 38  1  0
 16 39  1  0
 18 40  1  0
 19 41  1  0
 21 42  1  0
 22 43  1  0
 23 44  1  0
 23 45  1  0
 24 46  1  0
 24 47  1  0
M  END
$$$$
OCNT-2313761
     RDKit          3D

 49 52  0  0  0  0  0  0  0  0999 V2000
   -7.6831   -1.1356   -0.3640 C   0  0  0  0  0  0  0  0  0  0  0  0
   -6.5462   -0.9377    0.5304 N   0  0  0  0  0  0  0  0  0  0  0  0
   -6.1254    0.4806    0.5289 C   0  0  0  0  0  0  0  0  0  0  0  0
   -4.6441    0.7041    0.9129 C   0  0  0  0  0  0  0  0  0  0  0  0
   -3.7565    0.0147   -0.0381 N   0  0  0  0  0  0  0  0  0  0  0  0
   -2.4438    0.4101   -0.2328 C   0  0  0  0  0  0  0  0  0  0  0  0
   -1.7751    1.2478    0.6730 C   0  0  0  0  0  0  0  0  0  0  0  0
   -0.4478    1.6522    0.4741 C   0  0  0  0  0  0  0  0  0  0  0  0
    0.2627    1.2355   -0.6540 C   0  0  0  0  0  0  0  0  0  0  0  0
    1.6964    1.6637   -0.8616 C   0  0  0  0  0  0  0  0  0  0  0  0
    2.5400    0.9689    0.0872 N   0  0  0  0  0  0  0  0  0  0  0  0
    3.8969    1.1221   -0.1326 C   0  0  0  0  0  0  0  0  0  0  0  0
    4.3799    2.2627   -0.6389 N   0  0  0  0  0  0  0  0  0  0  0  0
    5.7106    2.3449   -0.8063 C   0  0  0  0  0  0  0  0  0  0  0  0
    6.5811    1.3290   -0.4966 C   0  0  0  0  0  0  0  0  0  0  0  0
    5.9974    0.1873    0.0093 C   0  0  0  0  0  0  0  0  0  0  0  0
    6.7947   -0.9354    0.3656 N   0  0  0  0  0  0  0  0  0  0  0  0
    6.3243   -2.1245    0.8824 C   0  0  0  0  0  0  0  0  0  0  0  0
    7.4281   -2.9194    1.0720 C   0  0  0  0  0  0  0  0  0  0  0  0
    8.5664   -2.2650    0.6905 N   0  0  0  0  0  0  0  0  0  0  0  0
    8.1600   -1.0841    0.2760 C   0  0  0  0  0  0  0  0  0  0  0  0
    4.6603    0.0734    0.1897 N   0  0  0  0  0  0  0  0  0  0  0  0
   -0.3802    0.3980   -1.5675 C   0  0  0  0  0  0  0  0  0  0  0  0
   -1.7081   -0.0001   -1.3564 C   0  0  0  0  0  0  0  0  0  0  0  0
   -4.2922   -1.2064   -0.6634 C   0  0  0  0  0  0  0  0  0  0  0  0
   -5.4188   -1.8319    0.1940 C   0  0  0  0  0  0  0  0  0  0  0  0
   -8.0592   -2.1616   -0.2850 H   0  0  0  0  0  0  0  0  0  0  0  0
   -7.4251   -0.9434   -1.4116 H   0  0  0  0  0  0  0  0  0  0  0  0
   -8.5121   -0.4759   -0.0844 H   0  0  0  0  0  0  0  0  0  0  0  0
   -6.7643    1.0346    1.2263 H   0  0  0  0  0  0  0  0  0  0  0  0
   -6.2764    0.9215   -0.4665 H   0  0  0  0  0  0  0  0  0  0  0  0
   -4.4570    0.3394    1.9302 H   0  0  0  0  0  0  0  0  0  0  0  0
   -4.4632    1.7857    0.8976 H   0  0  0  0  0  0  0  0  0  0  0  0
   -2.2682    1.5877    1.5793 H   0  0  0  0  0  0  0  0  0  0  0  0
    0.0325    2.2877    1.2157 H   0  0  0  0  0  0  0  0  0  0  0  0
    1.9969    1.4422   -1.8944 H   0  0  0  0  0  0  0  0  0  0  0  0
    1.7596    2.7513   -0.7274 H   0  0  0  0  0  0  0  0  0  0  0  0
    2.3582   -0.0239    0.1745 H   0  0  0  0  0  0  0  0  0  0  0  0
    6.0672    3.2882   -1.2105 H   0  0  0  0  0  0  0  0  0  0  0  0
    7.6411    1.4607   -0.6538 H   0  0  0  0  0  0  0  0  0  0  0  0
    5.2718   -2.2906    1.0654 H   0  0  0  0  0  0  0  0  0  0  0  0
    7.4606   -3.9281    1.4640 H   0  0  0  0  0  0  0  0  0  0  0  0
    8.8210   -0.3142   -0.0951 H   0  0  0  0  0  0  0  0  0  0  0  0
    0.1384    0.0483   -2.4571 H   0  0  0  0  0  0  0  0  0  0  0  0
   -2.1679   -0.6292   -2.1135 H   0  0  0  0  0  0  0  0  0  0  0  0
   -3.5088   -1.9663   -0.7718 H   0  0  0  0  0  0  0  0  0  0  0  0
   -4.6744   -0.9652   -1.6624 H   0  0  0  0  0  0  0  0  0  0  0  0
   -5.7731   -2.7545   -0.2826 H   0  0  0  0  0  0  0  0  0  0  0  0
   -4.9751   -2.1494    1.1473 H   0  0  0  0  0  0  0  0  0  0  0  0
  1  2  1  0
  2  3  1  0
  3  4  1  0
  4  5  1  0
  5  6  1  0
  6  7  1  0
  7  8  2  0
  8  9  1  0
  9 10  1  0
 10 11  1  0
 11 12  1  0
 12 13  2  0
 13 14  1  0
 14 15  2  0
 15 16  1  0
 16 17  1  0
 17 18  1  0
 18 19  2  0
 19 20  1  0
 20 21  2  0
 16 22  2  0
  9 23  2  0
 23 24  1  0
  5 25  1  0
 25 26  1  0
 26  2  1  0
 24  6  2  0
 22 12  1  0
 21 17  1  0
  1 27  1  0
  1 28  1  0
  1 29  1  0
  3 30  1  0
  3 31  1  0
  4 32  1  0
  4 33  1  0
  7 34  1  0
  8 35  1  0
 10 36  1  0
 10 37  1  0
 11 38  1  0
 14 39  1  0
 15 40  1  0
 18 41  1  0
 19 42  1  0
 21 43  1  0
 23 44  1  0
 24 45  1  0
 25 46  1  0
 25 47  1  0
 26 48  1  0
 26 49  1  0
M  END
$$$$
OCNT-2313767
     RDKit          3D

 54 56  0  0  0  0  0  0  0  0999 V2000
   -3.3710   -0.0313   -2.6651 C   0  0  0  0  0  0  0  0  0  0  0  0
   -3.1376    0.2899   -1.2332 C   0  0  0  0  0  0  0  0  0  0  0  0
   -3.5983    1.4372   -0.7300 N   0  0  0  0  0  0  0  0  0  0  0  0
   -3.2691    1.3942    0.5692 N   0  0  0  0  0  0  0  0  0  0  0  0
   -3.6965    2.4861    1.4161 C   0  0  0  0  0  0  0  0  0  0  0  0
   -4.9512    2.1442    2.1720 C   0  0  0  0  0  0  0  0  0  0  0  0
   -5.3504    3.2170    2.9076 F   0  0  0  0  0  0  0  0  0  0  0  0
   -5.9854    1.8042    1.3751 F   0  0  0  0  0  0  0  0  0  0  0  0
   -4.7513    1.1304    3.0488 F   0  0  0  0  0  0  0  0  0  0  0  0
   -2.5079    0.2978    0.8996 C   0  0  0  0  0  0  0  0  0  0  0  0
   -1.9448    0.0641    2.2567 C   0  0  0  0  0  0  0  0  0  0  0  0
   -2.4492   -0.4739   -0.2514 C   0  0  0  0  0  0  0  0  0  0  0  0
   -1.8230   -1.8130   -0.4442 C   0  0  0  0  0  0  0  0  0  0  0  0
   -0.5231   -1.7156   -1.2211 C   0  0  0  0  0  0  0  0  0  0  0  0
   -0.4718   -1.8276   -2.4433 O   0  0  0  0  0  0  0  0  0  0  0  0
    0.5840   -1.4800   -0.4402 N   0  0  0  0  0  0  0  0  0  0  0  0
    1.9141   -1.4017   -1.0025 C   0  0  0  0  0  0  0  0  0  0  0  0
    2.5223   -2.8145   -1.1965 C   0  0  0  0  0  0  0  0  0  0  0  0
    2.9570   -3.4669    0.1353 C   0  0  0  0  0  0  0  0  0  0  0  0
    4.0113   -2.6265    0.8830 C   0  0  0  0  0  0  0  0  0  0  0  0
    3.6649   -1.1830    0.8440 C   0  0  0  0  0  0  0  0  0  0  0  0
    2.7377   -0.6435   -0.0242 C   0  0  0  0  0  0  0  0  0  0  0  0
    2.7249    0.7051    0.2079 N   0  0  0  0  0  0  0  0  0  0  0  0
    1.9195    1.7289   -0.4559 C   0  0  0  0  0  0  0  0  0  0  0  0
    2.7994    2.6809   -1.2647 C   0  0  0  0  0  0  0  0  0  0  0  0
    1.0462    2.4917    0.5429 C   0  0  0  0  0  0  0  0  0  0  0  0
    3.5749    1.0610    1.2003 N   0  0  0  0  0  0  0  0  0  0  0  0
    4.1514   -0.0859    1.5712 C   0  0  0  0  0  0  0  0  0  0  0  0
   -3.3704   -1.1110   -2.8362 H   0  0  0  0  0  0  0  0  0  0  0  0
   -2.5905    0.4196   -3.2892 H   0  0  0  0  0  0  0  0  0  0  0  0
   -4.3422    0.3504   -2.9983 H   0  0  0  0  0  0  0  0  0  0  0  0
   -3.8589    3.3676    0.7815 H   0  0  0  0  0  0  0  0  0  0  0  0
   -2.8795    2.7316    2.1037 H   0  0  0  0  0  0  0  0  0  0  0  0
   -2.7090   -0.3368    2.9308 H   0  0  0  0  0  0  0  0  0  0  0  0
   -1.1110   -0.6497    2.2248 H   0  0  0  0  0  0  0  0  0  0  0  0
   -1.5496    0.9947    2.6821 H   0  0  0  0  0  0  0  0  0  0  0  0
   -2.5012   -2.4697   -0.9997 H   0  0  0  0  0  0  0  0  0  0  0  0
   -1.6405   -2.3084    0.5135 H   0  0  0  0  0  0  0  0  0  0  0  0
    0.4858   -1.4366    0.5660 H   0  0  0  0  0  0  0  0  0  0  0  0
    1.8703   -0.8947   -1.9732 H   0  0  0  0  0  0  0  0  0  0  0  0
    3.4051   -2.7359   -1.8447 H   0  0  0  0  0  0  0  0  0  0  0  0
    1.8084   -3.4713   -1.7075 H   0  0  0  0  0  0  0  0  0  0  0  0
    2.0746   -3.5979    0.7748 H   0  0  0  0  0  0  0  0  0  0  0  0
    3.3598   -4.4685   -0.0553 H   0  0  0  0  0  0  0  0  0  0  0  0
    4.9888   -2.7673    0.4068 H   0  0  0  0  0  0  0  0  0  0  0  0
    4.0948   -2.9758    1.9172 H   0  0  0  0  0  0  0  0  0  0  0  0
    1.2524    1.2136   -1.1555 H   0  0  0  0  0  0  0  0  0  0  0  0
    3.4934    3.2340   -0.6231 H   0  0  0  0  0  0  0  0  0  0  0  0
    3.3973    2.1296   -2.0002 H   0  0  0  0  0  0  0  0  0  0  0  0
    2.1881    3.4111   -1.8059 H   0  0  0  0  0  0  0  0  0  0  0  0
    0.3869    3.1982    0.0242 H   0  0  0  0  0  0  0  0  0  0  0  0
    0.4184    1.8035    1.1175 H   0  0  0  0  0  0  0  0  0  0  0  0
    1.6511    3.0679    1.2508 H   0  0  0  0  0  0  0  0  0  0  0  0
    4.9008   -0.0676    2.3527 H   0  0  0  0  0  0  0  0  0  0  0  0
  1  2  1  0
  2  3  2  0
  3  4  1  0
  4  5  1  0
  5  6  1  0
  6  7  1  0
  6  8  1  0
  6  9  1  0
  4 10  1  0
 10 11  1  0
 10 12  2  0
 12 13  1  0
 13 14  1  0
 14 15  2  0
 14 16  1  0
 16 17  1  0
 17 18  1  0
 18 19  1  0
 19 20  1  0
 20 21  1  0
 21 22  2  0
 22 23  1  0
 23 24  1  0
 24 25  1  0
 24 26  1  0
 23 27  1  0
 27 28  2  0
 12  2  1  0
 22 17  1  0
 28 21  1  0
  1 29  1  0
  1 30  1  0
  1 31  1  0
  5 32  1  0
  5 33  1  0
 11 34  1  0
 11 35  1  0
 11 36  1  0
 13 37  1  0
 13 38  1  0
 16 39  1  0
 17 40  1  0
 18 41  1  0
 18 42  1  0
 19 43  1  0
 19 44  1  0
 20 45  1  0
 20 46  1  0
 24 47  1  0
 25 48  1  0
 25 49  1  0
 25 50  1  0
 26 51  1  0
 26 52  1  0
 26 53  1  0
 28 54  1  0
M  END
$$$$
OCNT-2313769
     RDKit          3D

 56 59  0  0  0  0  0  0  0  0999 V2000
    5.8675   -2.2461    0.2480 O   0  0  0  0  0  0  0  0  0  0  0  0
    4.9455   -1.5900   -0.6567 S   0  0  0  0  0  0  0  0  0  0  0  0
    4.9302   -1.8953   -2.0718 O   0  0  0  0  0  0  0  0  0  0  0  0
    3.3147   -2.0408   -0.0652 C   0  0  0  0  0  0  0  0  0  0  0  0
    2.8115   -3.2675    0.3539 C   0  0  0  0  0  0  0  0  0  0  0  0
    1.4601   -3.0782    0.7213 C   0  0  0  0  0  0  0  0  0  0  0  0
    1.1902   -1.7444    0.5135 C   0  0  0  0  0  0  0  0  0  0  0  0
   -0.0337   -0.9118    0.6847 C   0  0  0  0  0  0  0  0  0  0  0  0
   -0.9939   -1.2371   -0.3716 N   0  0  0  0  0  0  0  0  0  0  0  0
   -2.3252   -0.5686   -0.2990 C   0  0  0  0  0  0  0  0  0  0  0  0
   -2.1355    0.9820   -0.4379 C   0  0  0  0  0  0  0  0  0  0  0  0
   -3.3695    1.8606   -0.4539 C   0  0  0  0  0  0  0  0  0  0  0  0
   -3.9575    2.2417   -1.6716 C   0  0  0  0  0  0  0  0  0  0  0  0
   -5.0870    3.0616   -1.6882 C   0  0  0  0  0  0  0  0  0  0  0  0
   -5.6249    3.5110   -0.4892 C   0  0  0  0  0  0  0  0  0  0  0  0
   -6.7060    4.3010   -0.5052 F   0  0  0  0  0  0  0  0  0  0  0  0
   -5.0519    3.1599    0.7266 C   0  0  0  0  0  0  0  0  0  0  0  0
   -3.9221    2.3402    0.7451 C   0  0  0  0  0  0  0  0  0  0  0  0
   -3.0284   -0.9794    1.0242 C   0  0  0  0  0  0  0  0  0  0  0  0
   -4.5125   -1.2590    0.8149 C   0  0  0  0  0  0  0  0  0  0  0  0
   -4.7385   -2.3463   -0.0839 O   0  0  0  0  0  0  0  0  0  0  0  0
   -3.7745   -2.4709   -1.1326 C   0  0  0  0  0  0  0  0  0  0  0  0
   -3.1399   -1.1339   -1.4969 C   0  0  0  0  0  0  0  0  0  0  0  0
    2.2997   -1.1098    0.0436 O   0  0  0  0  0  0  0  0  0  0  0  0
    5.1343    0.0855   -0.4765 N   0  0  0  0  0  0  0  0  0  0  0  0
    5.0069    0.6277    0.8978 C   0  0  0  0  0  0  0  0  0  0  0  0
    5.8496    1.8939    0.8740 C   0  0  0  0  0  0  0  0  0  0  0  0
    7.0171    1.4847   -0.0005 C   0  0  0  0  0  0  0  0  0  0  0  0
    6.3582    0.6581   -1.0975 C   0  0  0  0  0  0  0  0  0  0  0  0
    3.3785   -4.1885    0.3772 H   0  0  0  0  0  0  0  0  0  0  0  0
    0.7590   -3.8196    1.0798 H   0  0  0  0  0  0  0  0  0  0  0  0
   -0.4455   -1.1101    1.6800 H   0  0  0  0  0  0  0  0  0  0  0  0
    0.2532    0.1445    0.6468 H   0  0  0  0  0  0  0  0  0  0  0  0
   -0.5507   -1.0350   -1.2700 H   0  0  0  0  0  0  0  0  0  0  0  0
   -1.5050    1.3547    0.3806 H   0  0  0  0  0  0  0  0  0  0  0  0
   -1.5611    1.1904   -1.3527 H   0  0  0  0  0  0  0  0  0  0  0  0
   -3.5391    1.9019   -2.6172 H   0  0  0  0  0  0  0  0  0  0  0  0
   -5.5469    3.3546   -2.6268 H   0  0  0  0  0  0  0  0  0  0  0  0
   -5.4842    3.5311    1.6504 H   0  0  0  0  0  0  0  0  0  0  0  0
   -3.4737    2.0866    1.7034 H   0  0  0  0  0  0  0  0  0  0  0  0
   -2.5910   -1.9131    1.4060 H   0  0  0  0  0  0  0  0  0  0  0  0
   -2.8759   -0.2295    1.8077 H   0  0  0  0  0  0  0  0  0  0  0  0
   -5.0441   -0.3819    0.4334 H   0  0  0  0  0  0  0  0  0  0  0  0
   -4.9808   -1.5240    1.7689 H   0  0  0  0  0  0  0  0  0  0  0  0
   -4.2922   -2.8919   -2.0011 H   0  0  0  0  0  0  0  0  0  0  0  0
   -3.0200   -3.2027   -0.8228 H   0  0  0  0  0  0  0  0  0  0  0  0
   -3.9517   -0.4540   -1.7722 H   0  0  0  0  0  0  0  0  0  0  0  0
   -2.5136   -1.2401   -2.3914 H   0  0  0  0  0  0  0  0  0  0  0  0
    3.9637    0.8527    1.1333 H   0  0  0  0  0  0  0  0  0  0  0  0
    5.4030   -0.0721    1.6414 H   0  0  0  0  0  0  0  0  0  0  0  0
    5.2940    2.7159    0.4052 H   0  0  0  0  0  0  0  0  0  0  0  0
    6.1571    2.2111    1.8748 H   0  0  0  0  0  0  0  0  0  0  0  0
    7.5723    2.3390   -0.3980 H   0  0  0  0  0  0  0  0  0  0  0  0
    7.7138    0.8603    0.5725 H   0  0  0  0  0  0  0  0  0  0  0  0
    7.0463   -0.1033   -1.4766 H   0  0  0  0  0  0  0  0  0  0  0  0
    6.0504    1.2942   -1.9351 H   0  0  0  0  0  0  0  0  0  0  0  0
  1  2  2  0
  2  3  2  0
  2  4  1  0
  4  5  2  0
  5  6  1  0
  6  7  2  0
  7  8  1  0
  8  9  1  0
  9 10  1  0
 10 11  1  0
 11 12  1  0
 12 13  1  0
 13 14  2  0
 14 15  1  0
 15 16  1  0
 15 17  2  0
 17 18  1  0
 10 19  1  0
 19 20  1  0
 20 21  1  0
 21 22  1  0
 22 23  1  0
  7 24  1  0
  2 25  1  0
 25 26  1  0
 26 27  1  0
 27 28  1  0
 28 29  1  0
 24  4  1  0
 29 25  1  0
 23 10  1  0
 18 12  2  0
  5 30  1  0
  6 31  1  0
  8 32  1  0
  8 33  1  0
  9 34  1  0
 11 35  1  0
 11 36  1  0
 13 37  1  0
 14 38  1  0
 17 39  1  0
 18 40  1  0
 19 41  1  0
 19 42  1  0
 20 43  1  0
 20 44  1  0
 22 45  1  0
 22 46  1  0
 23 47  1  0
 23 48  1  0
 26 49  1  0
 26 50  1  0
 27 51  1  0
 27 52  1  0
 28 53  1  0
 28 54  1  0
 29 55  1  0
 29 56  1  0
M  END
$$$$
OCNT-2313778
     RDKit          3D

  0  0  0  0  0  0  0  0  0  0999 V3000
M  V30 BEGIN CTAB
M  V30 COUNTS 49 53 0 0 0
M  V30 BEGIN ATOM
M  V30 1 O -0.335852 -1.882377 -1.977666 0
M  V30 2 C -0.256763 -0.960248 -1.170270 0
M  V30 3 C 1.071158 -0.327975 -0.966588 0
M  V30 4 C 1.871709 -0.071928 -2.083991 0
M  V30 5 C 3.134992 0.502393 -1.924068 0
M  V30 6 C 3.617695 0.811851 -0.643196 0
M  V30 7 C 4.982237 1.434386 -0.469057 0
M  V30 8 N 5.882562 0.568729 0.269818 0
M  V30 9 C 6.471321 -0.580653 -0.159052 0
M  V30 10 N 7.258358 -1.047789 0.782664 0
M  V30 11 C 7.111609 -0.133507 1.786740 0
M  V30 12 N 6.284236 0.880756 1.519165 0
M  V30 13 C 2.812292 0.534884 0.474128 0
M  V30 14 C 1.550476 -0.042459 0.315195 0
M  V30 15 N -1.337050 -0.474876 -0.446164 0
M  V30 16 C -1.459050 0.903035 0.017456 0
M  V30 17 C -2.930495 1.257315 -0.211300 0 CFG=2
M  V30 18 C -3.371166 2.442547 0.596280 0
M  V30 19 C -3.675681 2.374206 2.072085 0
M  V30 20 C -4.789966 2.594037 1.083719 0
M  V30 21 C -3.620556 -0.078703 0.051947 0
M  V30 22 C -2.652306 -1.101180 -0.561131 0 CFG=2
M  V30 23 C -2.694425 -2.398117 0.197803 0
M  V30 24 C -2.472275 -3.715621 -0.502194 0
M  V30 25 C -3.843233 -3.356308 -0.004932 0
M  V30 26 H 1.510228 -0.324066 -3.079124 0
M  V30 27 H 3.736446 0.697664 -2.809832 0
M  V30 28 H 4.895581 2.387275 0.065625 0
M  V30 29 H 5.458878 1.638623 -1.434743 0
M  V30 30 H 6.296391 -1.019316 -1.131478 0
M  V30 31 H 7.624588 -0.208438 2.737083 0
M  V30 32 H 3.172650 0.752287 1.479715 0
M  V30 33 H 0.957166 -0.285488 1.192961 0
M  V30 34 H -0.793058 1.580482 -0.525583 0
M  V30 35 H -1.202841 0.922310 1.082624 0
M  V30 36 H -3.069551 1.504041 -1.273324 0
M  V30 37 H -2.880048 3.346622 0.243761 0
M  V30 38 H -3.633182 1.423700 2.589355 0
M  V30 39 H -3.377448 3.214799 2.690228 0
M  V30 40 H -5.238533 3.580820 1.037363 0
M  V30 41 H -5.498958 1.788541 0.933567 0
M  V30 42 H -4.613390 -0.136883 -0.406511 0
M  V30 43 H -3.748229 -0.261470 1.125022 0
M  V30 44 H -2.875830 -1.243931 -1.626129 0
M  V30 45 H -2.303097 -2.299013 1.204909 0
M  V30 46 H -1.913497 -4.478217 0.027914 0
M  V30 47 H -2.293795 -3.707770 -1.572178 0
M  V30 48 H -4.221483 -3.885650 0.862083 0
M  V30 49 H -4.598814 -3.119317 -0.745191 0
M  V30 END ATOM
M  V30 BEGIN BOND
M  V30 1 2 1 2
M  V30 2 1 2 3
M  V30 3 1 3 4
M  V30 4 2 4 5
M  V30 5 1 5 6
M  V30 6 1 6 7
M  V30 7 1 7 8
M  V30 8 1 8 9
M  V30 9 2 9 10
M  V30 10 1 10 11
M  V30 11 2 11 12
M  V30 12 2 6 13
M  V30 13 1 13 14
M  V30 14 1 2 15
M  V30 15 1 15 16
M  V30 16 1 16 17
M  V30 17 1 17 18
M  V30 18 1 18 19
M  V30 19 1 19 20
M  V30 20 1 17 21
M  V30 21 1 21 22
M  V30 22 1 22 23
M  V30 23 1 23 24
M  V30 24 1 24 25
M  V30 25 2 14 3
M  V30 26 1 22 15
M  V30 27 1 25 23
M  V30 28 1 12 8
M  V30 29 1 20 18
M  V30 30 1 4 26
M  V30 31 1 5 27
M  V30 32 1 7 28
M  V30 33 1 7 29
M  V30 34 1 9 30
M  V30 35 1 11 31
M  V30 36 1 13 32
M  V30 37 1 14 33
M  V30 38 1 16 34
M  V30 39 1 16 35
M  V30 40 1 17 36 CFG=3
M  V30 41 1 18 37
M  V30 42 1 19 38
M  V30 43 1 19 39
M  V30 44 1 20 40
M  V30 45 1 20 41
M  V30 46 1 21 42
M  V30 47 1 21 43
M  V30 48 1 22 44 CFG=3
M  V30 49 1 23 45
M  V30 50 1 24 46
M  V30 51 1 24 47
M  V30 52 1 25 48
M  V30 53 1 25 49
M  V30 END BOND
M  V30 BEGIN COLLECTION
M  V30 MDLV30/STERAC1 ATOMS=(2 17 22)
M  V30 END COLLECTION
M  V30 END CTAB
M  END
>  <_CXSMILES_Data>  (769) 
|&1:16,21|

$$$$
OCNT-2313789
     RDKit          3D

 42 45  0  0  0  0  0  0  0  0999 V2000
   -1.1937    0.9527    0.6928 O   0  0  0  0  0  0  0  0  0  0  0  0
   -0.6232    1.0731   -0.3878 C   0  0  0  0  0  0  0  0  0  0  0  0
   -1.1321    0.4931   -1.6198 C   0  0  0  0  0  0  0  0  0  0  0  0
   -0.4367    0.7534   -2.7825 C   0  0  0  0  0  0  0  0  0  0  0  0
    0.6922    1.4948   -2.9060 N   0  0  0  0  0  0  0  0  0  0  0  0
    1.1387    1.9725   -1.7903 C   0  0  0  0  0  0  0  0  0  0  0  0
    0.5703    1.7843   -0.5429 N   0  0  0  0  0  0  0  0  0  0  0  0
    1.1632    2.4198    0.6238 C   0  0  0  0  0  0  0  0  0  0  0  0
    1.7922    1.4485    1.6323 C   0  0  0  0  0  0  0  0  0  0  0  0
    3.0080    0.6754    1.1105 C   0  0  0  0  0  0  0  0  0  0  0  0
    3.8105    0.0375    2.2461 C   0  0  0  0  0  0  0  0  0  0  0  0
    4.3929   -1.2406    1.6566 C   0  0  0  0  0  0  0  0  0  0  0  0
    3.9135   -1.3195    0.2731 N   0  0  0  0  0  0  0  0  0  0  0  0
    2.6800   -0.5286    0.2377 C   0  0  0  0  0  0  0  0  0  0  0  0
   -1.1620    0.0221   -4.1410 S   0  0  0  0  0  0  0  0  0  0  0  0
   -2.4102   -0.6520   -3.1871 C   0  0  0  0  0  0  0  0  0  0  0  0
   -2.2875   -0.3277   -1.8485 C   0  0  0  0  0  0  0  0  0  0  0  0
   -3.2529   -0.8281   -0.8805 C   0  0  0  0  0  0  0  0  0  0  0  0
   -4.6016   -0.4581   -0.9708 C   0  0  0  0  0  0  0  0  0  0  0  0
   -5.5282   -0.9457   -0.0452 C   0  0  0  0  0  0  0  0  0  0  0  0
   -5.1072   -1.8031    0.9699 C   0  0  0  0  0  0  0  0  0  0  0  0
   -6.2487   -2.4030    2.1090 Cl  0  0  0  0  0  0  0  0  0  0  0  0
   -3.7687   -2.1780    1.0681 C   0  0  0  0  0  0  0  0  0  0  0  0
   -2.8415   -1.6914    0.1426 C   0  0  0  0  0  0  0  0  0  0  0  0
    2.0565    2.5822   -1.7889 H   0  0  0  0  0  0  0  0  0  0  0  0
    1.9158    3.1506    0.3053 H   0  0  0  0  0  0  0  0  0  0  0  0
    0.3702    2.9822    1.1324 H   0  0  0  0  0  0  0  0  0  0  0  0
    2.1085    2.0479    2.4963 H   0  0  0  0  0  0  0  0  0  0  0  0
    1.0391    0.7461    2.0082 H   0  0  0  0  0  0  0  0  0  0  0  0
    3.6700    1.3589    0.5608 H   0  0  0  0  0  0  0  0  0  0  0  0
    4.5946    0.7161    2.5987 H   0  0  0  0  0  0  0  0  0  0  0  0
    3.1691   -0.2084    3.1010 H   0  0  0  0  0  0  0  0  0  0  0  0
    5.4873   -1.2382    1.6877 H   0  0  0  0  0  0  0  0  0  0  0  0
    4.0477   -2.1141    2.2206 H   0  0  0  0  0  0  0  0  0  0  0  0
    4.6041   -0.8777   -0.3352 H   0  0  0  0  0  0  0  0  0  0  0  0
    2.4381   -0.2566   -0.7917 H   0  0  0  0  0  0  0  0  0  0  0  0
    1.8477   -1.1162    0.6427 H   0  0  0  0  0  0  0  0  0  0  0  0
   -3.1696   -1.2619   -3.6586 H   0  0  0  0  0  0  0  0  0  0  0  0
   -4.9384    0.2176   -1.7538 H   0  0  0  0  0  0  0  0  0  0  0  0
   -6.5712   -0.6506   -0.1197 H   0  0  0  0  0  0  0  0  0  0  0  0
   -3.4385   -2.8428    1.8616 H   0  0  0  0  0  0  0  0  0  0  0  0
   -1.7985   -1.9865    0.2311 H   0  0  0  0  0  0  0  0  0  0  0  0
  1  2  2  0
  2  3  1  0
  3  4  2  0
  4  5  1  0
  5  6  2  0
  6  7  1  0
  7  8  1  0
  8  9  1  0
  9 10  1  0
 10 11  1  0
 11 12  1  0
 12 13  1  0
 13 14  1  0
  4 15  1  0
 15 16  1  0
 16 17  2  0
 17 18  1  0
 18 19  1  0
 19 20  2  0
 20 21  1  0
 21 22  1  0
 21 23  2  0
 23 24  1  0
  7  2  1  0
 14 10  1  0
 24 18  2  0
 17  3  1  0
  6 25  1  0
  8 26  1  0
  8 27  1  0
  9 28  1  0
  9 29  1  0
 10 30  1  0
 11 31  1  0
 11 32  1  0
 12 33  1  0
 12 34  1  0
 13 35  1  0
 14 36  1  0
 14 37  1  0
 16 38  1  0
 19 39  1  0
 20 40  1  0
 23 41  1  0
 24 42  1  0
M  END
$$$$
OCNT-2313799
     RDKit          3D

 45 48  0  0  0  0  0  0  0  0999 V2000
    2.0188   -0.9889    2.0314 O   0  0  0  0  0  0  0  0  0  0  0  0
    2.2335   -0.3514    1.0097 C   0  0  0  0  0  0  0  0  0  0  0  0
    1.4098    0.6410    0.5157 N   0  0  0  0  0  0  0  0  0  0  0  0
    0.1795    1.0161    1.1866 C   0  0  0  0  0  0  0  0  0  0  0  0
   -1.0680    0.4471    0.4665 C   0  0  0  0  0  0  0  0  0  0  0  0
   -2.2952    0.8293    1.3440 C   0  0  0  0  0  0  0  0  0  0  0  0
   -3.6507    0.4168    0.8213 C   0  0  0  0  0  0  0  0  0  0  0  0
   -4.2042   -0.8230    1.1716 C   0  0  0  0  0  0  0  0  0  0  0  0
   -5.4605   -1.2019    0.6952 C   0  0  0  0  0  0  0  0  0  0  0  0
   -6.1827   -0.3425   -0.1293 C   0  0  0  0  0  0  0  0  0  0  0  0
   -5.6517    0.8985   -0.4731 C   0  0  0  0  0  0  0  0  0  0  0  0
   -4.3953    1.2782    0.0029 C   0  0  0  0  0  0  0  0  0  0  0  0
   -0.9832   -1.0518    0.0153 C   0  0  0  0  0  0  0  0  0  0  0  0
   -1.5277   -0.6437   -1.3648 C   0  0  0  0  0  0  0  0  0  0  0  0
   -1.1609    0.8175   -1.0530 C   0  0  0  0  0  0  0  0  0  0  0  0
    3.4202   -0.6502    0.1841 C   0  0  0  0  0  0  0  0  0  0  0  0
    3.7950   -1.9800   -0.0515 C   0  0  0  0  0  0  0  0  0  0  0  0
    4.8975   -2.2802   -0.8529 C   0  0  0  0  0  0  0  0  0  0  0  0
    5.6629   -1.2588   -1.4329 C   0  0  0  0  0  0  0  0  0  0  0  0
    5.3163    0.0805   -1.1789 C   0  0  0  0  0  0  0  0  0  0  0  0
    4.2155    0.3582   -0.3751 C   0  0  0  0  0  0  0  0  0  0  0  0
    4.1811    1.7239   -0.2713 N   0  0  0  0  0  0  0  0  0  0  0  0
    5.1139    2.3534   -1.0062 N   0  0  0  0  0  0  0  0  0  0  0  0
    5.8159    1.3509   -1.5418 C   0  0  0  0  0  0  0  0  0  0  0  0
    1.5524    0.9522   -0.4368 H   0  0  0  0  0  0  0  0  0  0  0  0
    0.1457    2.1112    1.1884 H   0  0  0  0  0  0  0  0  0  0  0  0
    0.2132    0.6744    2.2269 H   0  0  0  0  0  0  0  0  0  0  0  0
   -2.3058    1.9175    1.4961 H   0  0  0  0  0  0  0  0  0  0  0  0
   -2.1705    0.3984    2.3471 H   0  0  0  0  0  0  0  0  0  0  0  0
   -3.6594   -1.5042    1.8217 H   0  0  0  0  0  0  0  0  0  0  0  0
   -5.8759   -2.1677    0.9708 H   0  0  0  0  0  0  0  0  0  0  0  0
   -7.1610   -0.6375   -0.4990 H   0  0  0  0  0  0  0  0  0  0  0  0
   -6.2174    1.5734   -1.1100 H   0  0  0  0  0  0  0  0  0  0  0  0
   -4.0026    2.2551   -0.2690 H   0  0  0  0  0  0  0  0  0  0  0  0
   -1.5938   -1.7687    0.5694 H   0  0  0  0  0  0  0  0  0  0  0  0
    0.0216   -1.4794   -0.0547 H   0  0  0  0  0  0  0  0  0  0  0  0
   -1.0016   -1.0812   -2.2184 H   0  0  0  0  0  0  0  0  0  0  0  0
   -2.5991   -0.8215   -1.4980 H   0  0  0  0  0  0  0  0  0  0  0  0
   -0.2220    1.1209   -1.5283 H   0  0  0  0  0  0  0  0  0  0  0  0
   -1.9107    1.5610   -1.3344 H   0  0  0  0  0  0  0  0  0  0  0  0
    3.2138   -2.7877    0.3908 H   0  0  0  0  0  0  0  0  0  0  0  0
    5.1671   -3.3195   -1.0293 H   0  0  0  0  0  0  0  0  0  0  0  0
    6.5192   -1.5029   -2.0556 H   0  0  0  0  0  0  0  0  0  0  0  0
    3.5427    2.2847    0.2837 H   0  0  0  0  0  0  0  0  0  0  0  0
    6.6643    1.5830   -2.1727 H   0  0  0  0  0  0  0  0  0  0  0  0
  1  2  2  0
  2  3  1  0
  3  4  1  0
  4  5  1  0
  5  6  1  0
  6  7  1  0
  7  8  2  0
  8  9  1  0
  9 10  2  0
 10 11  1  0
 11 12  2  0
  5 13  1  0
 13 14  1  0
 14 15  1  0
  2 16  1  0
 16 17  1  0
 17 18  2  0
 18 19  1  0
 19 20  2  0
 20 21  1  0
 21 22  1  0
 22 23  1  0
 23 24  2  0
 15  5  1  0
 21 16  2  0
 12  7  1  0
 24 20  1  0
  3 25  1  0
  4 26  1  0
  4 27  1  0
  6 28  1  0
  6 29  1  0
  8 30  1  0
  9 31  1  0
 10 32  1  0
 11 33  1  0
 12 34  1  0
 13 35  1  0
 13 36  1  0
 14 37  1  0
 14 38  1  0
 15 39  1  0
 15 40  1  0
 17 41  1  0
 18 42  1  0
 19 43  1  0
 22 44  1  0
 24 45  1  0
M  END
$$$$
OCNT-2313808
     RDKit          3D

 45 48  0  0  0  0  0  0  0  0999 V2000
    1.5737   -1.2870    2.9727 O   0  0  0  0  0  0  0  0  0  0  0  0
    1.8139   -0.6948    1.9273 C   0  0  0  0  0  0  0  0  0  0  0  0
    0.9165    0.1099    1.2652 N   0  0  0  0  0  0  0  0  0  0  0  0
   -0.4483    0.3122    1.7010 C   0  0  0  0  0  0  0  0  0  0  0  0
   -1.3267   -0.6513    0.9046 C   0  0  0  0  0  0  0  0  0  0  0  0
   -1.3067   -2.1298    1.3813 C   0  0  0  0  0  0  0  0  0  0  0  0
   -2.8259   -2.0930    1.1462 C   0  0  0  0  0  0  0  0  0  0  0  0
   -2.7578   -0.6241    1.3204 N   0  0  0  0  0  0  0  0  0  0  0  0
   -3.6859    0.1062    0.4383 C   0  0  0  0  0  0  0  0  0  0  0  0
   -3.5817    1.6273    0.6731 C   0  0  0  0  0  0  0  0  0  0  0  0
   -2.9519    2.3258   -0.5206 C   0  0  0  0  0  0  0  0  0  0  0  0
   -3.6989    2.1466   -1.7237 O   0  0  0  0  0  0  0  0  0  0  0  0
   -4.3999    0.9079   -1.8270 C   0  0  0  0  0  0  0  0  0  0  0  0
   -3.7119   -0.2197   -1.0703 C   0  0  0  0  0  0  0  0  0  0  0  0
    3.1044   -0.7822    1.2380 C   0  0  0  0  0  0  0  0  0  0  0  0
    4.1835   -1.5097    1.7038 C   0  0  0  0  0  0  0  0  0  0  0  0
    5.5028   -1.3671    0.6234 S   0  0  0  0  0  0  0  0  0  0  0  0
    4.5573   -0.3541   -0.3895 C   0  0  0  0  0  0  0  0  0  0  0  0
    5.0973    0.2569   -1.7183 C   0  0  0  0  0  0  0  0  0  0  0  0
    4.3640    1.0707   -2.5493 C   0  0  0  0  0  0  0  0  0  0  0  0
    5.1091    1.4402   -3.6246 O   0  0  0  0  0  0  0  0  0  0  0  0
    6.3279    0.8572   -3.4769 C   0  0  0  0  0  0  0  0  0  0  0  0
    6.3725    0.1166   -2.3173 C   0  0  0  0  0  0  0  0  0  0  0  0
    3.3297   -0.1195    0.0256 N   0  0  0  0  0  0  0  0  0  0  0  0
    1.2385    0.5082    0.3876 H   0  0  0  0  0  0  0  0  0  0  0  0
   -0.5310    0.1524    2.7812 H   0  0  0  0  0  0  0  0  0  0  0  0
   -0.6972    1.3530    1.4768 H   0  0  0  0  0  0  0  0  0  0  0  0
   -1.1486   -0.5645   -0.1735 H   0  0  0  0  0  0  0  0  0  0  0  0
   -1.0315   -2.2786    2.4321 H   0  0  0  0  0  0  0  0  0  0  0  0
   -0.7413   -2.8277    0.7587 H   0  0  0  0  0  0  0  0  0  0  0  0
   -3.1090   -2.4643    0.1558 H   0  0  0  0  0  0  0  0  0  0  0  0
   -3.4253   -2.6139    1.8985 H   0  0  0  0  0  0  0  0  0  0  0  0
   -4.6824   -0.1658    0.8174 H   0  0  0  0  0  0  0  0  0  0  0  0
   -3.0352    1.8653    1.5925 H   0  0  0  0  0  0  0  0  0  0  0  0
   -4.5966    2.0235    0.8144 H   0  0  0  0  0  0  0  0  0  0  0  0
   -1.9315    1.9666   -0.6943 H   0  0  0  0  0  0  0  0  0  0  0  0
   -2.8847    3.4027   -0.3353 H   0  0  0  0  0  0  0  0  0  0  0  0
   -4.4738    0.6604   -2.8908 H   0  0  0  0  0  0  0  0  0  0  0  0
   -5.4217    1.0585   -1.4596 H   0  0  0  0  0  0  0  0  0  0  0  0
   -4.2466   -1.1591   -1.2485 H   0  0  0  0  0  0  0  0  0  0  0  0
   -2.7040   -0.3342   -1.4786 H   0  0  0  0  0  0  0  0  0  0  0  0
    4.2472   -2.0999    2.6080 H   0  0  0  0  0  0  0  0  0  0  0  0
    3.3557    1.4591   -2.5196 H   0  0  0  0  0  0  0  0  0  0  0  0
    7.0404    1.0612   -4.2644 H   0  0  0  0  0  0  0  0  0  0  0  0
    7.2214   -0.4483   -1.9593 H   0  0  0  0  0  0  0  0  0  0  0  0
  1  2  2  0
  2  3  1  0
  3  4  1  0
  4  5  1  0
  5  6  1  0
  6  7  1  0
  7  8  1  0
  8  9  1  0
  9 10  1  0
 10 11  1  0
 11 12  1  0
 12 13  1  0
 13 14  1  0
  2 15  1  0
 15 16  2  0
 16 17  1  0
 17 18  1  0
 18 19  1  0
 19 20  2  0
 20 21  1  0
 21 22  1  0
 22 23  2  0
 18 24  2  0
  8  5  1  0
 14  9  1  0
 24 15  1  0
 23 19  1  0
  3 25  1  0
  4 26  1  0
  4 27  1  0
  5 28  1  0
  6 29  1  0
  6 30  1  0
  7 31  1  0
  7 32  1  0
  9 33  1  0
 10 34  1  0
 10 35  1  0
 11 36  1  0
 11 37  1  0
 13 38  1  0
 13 39  1  0
 14 40  1  0
 14 41  1  0
 16 42  1  0
 20 43  1  0
 22 44  1  0
 23 45  1  0
M  END
$$$$
OCNT-2313826
     RDKit          3D

  0  0  0  0  0  0  0  0  0  0999 V3000
M  V30 BEGIN CTAB
M  V30 COUNTS 43 45 0 0 0
M  V30 BEGIN ATOM
M  V30 1 C 6.912904 -0.851349 0.486670 0
M  V30 2 O 5.536035 -0.558932 0.250213 0
M  V30 3 C 4.698696 -1.005171 1.227746 0
M  V30 4 O 5.067475 -1.600960 2.232507 0
M  V30 5 C 3.326632 -0.626459 0.946983 0
M  V30 6 C 2.314323 -0.549178 1.889265 0
M  V30 7 C 1.154489 -0.054369 1.259348 0
M  V30 8 C 1.439772 0.145433 -0.083747 0
M  V30 9 C 0.594826 0.703579 -1.132511 0
M  V30 10 O 1.026356 1.102142 -2.210715 0
M  V30 11 N -0.750026 0.748498 -0.833746 0
M  V30 12 C -1.757001 1.249956 -1.785085 0 CFG=1
M  V30 13 C -2.282808 0.183224 -2.769178 0
M  V30 14 C -3.687215 0.785663 -2.588086 0
M  V30 15 C -3.214216 1.369164 -1.227810 0 CFG=1
M  V30 16 C -3.579678 0.620107 0.141419 0
M  V30 17 C -3.937609 -0.740457 0.216012 0
M  V30 18 C -4.218534 -1.368993 1.433616 0
M  V30 19 C -4.148860 -0.650648 2.621701 0
M  V30 20 C -3.800948 0.694161 2.590519 0
M  V30 21 C -3.522887 1.313928 1.369033 0
M  V30 22 N 2.748625 -0.291267 -0.268755 0
M  V30 23 C 3.379936 -0.442631 -1.568062 0
M  V30 24 H 7.257190 -0.364836 1.404871 0
M  V30 25 H 7.491198 -0.454518 -0.352163 0
M  V30 26 H 7.072790 -1.932674 0.535526 0
M  V30 27 H 2.430121 -0.780553 2.942027 0
M  V30 28 H 0.219528 0.168351 1.758679 0
M  V30 29 H -1.049156 0.313005 0.028877 0
M  V30 30 H -1.428119 2.174258 -2.278431 0
M  V30 31 H -1.878471 0.239081 -3.783578 0
M  V30 32 H -2.196294 -0.850470 -2.415524 0
M  V30 33 H -3.927670 1.557598 -3.329548 0
M  V30 34 H -4.511747 0.069049 -2.565131 0
M  V30 35 H -3.519094 2.423662 -1.144551 0
M  V30 36 H -3.997511 -1.334810 -0.693404 0
M  V30 37 H -4.492814 -2.420818 1.449552 0
M  V30 38 H -4.368509 -1.137095 3.568446 0
M  V30 39 H -3.746983 1.265268 3.513929 0
M  V30 40 H -3.249930 2.368708 1.369039 0
M  V30 41 H 2.627816 -0.706957 -2.314693 0
M  V30 42 H 3.874539 0.497791 -1.821150 0
M  V30 43 H 4.092830 -1.269477 -1.535432 0
M  V30 END ATOM
M  V30 BEGIN BOND
M  V30 1 1 1 2
M  V30 2 1 2 3
M  V30 3 2 3 4
M  V30 4 1 3 5
M  V30 5 2 5 6
M  V30 6 1 6 7
M  V30 7 2 7 8
M  V30 8 1 8 9
M  V30 9 2 9 10
M  V30 10 1 9 11
M  V30 11 1 11 12
M  V30 12 1 12 13
M  V30 13 1 13 14
M  V30 14 1 14 15
M  V30 15 1 15 16
M  V30 16 2 16 17
M  V30 17 1 17 18
M  V30 18 2 18 19
M  V30 19 1 19 20
M  V30 20 2 20 21
M  V30 21 1 8 22
M  V30 22 1 22 23
M  V30 23 1 22 5
M  V30 24 1 15 12
M  V30 25 1 21 16
M  V30 26 1 1 24
M  V30 27 1 1 25
M  V30 28 1 1 26
M  V30 29 1 6 27
M  V30 30 1 7 28
M  V30 31 1 11 29
M  V30 32 1 12 30 CFG=3
M  V30 33 1 13 31
M  V30 34 1 13 32
M  V30 35 1 14 33
M  V30 36 1 14 34
M  V30 37 1 15 35 CFG=1
M  V30 38 1 17 36
M  V30 39 1 18 37
M  V30 40 1 19 38
M  V30 41 1 20 39
M  V30 42 1 21 40
M  V30 43 1 23 41
M  V30 44 1 23 42
M  V30 45 1 23 43
M  V30 END BOND
M  V30 BEGIN COLLECTION
M  V30 MDLV30/STERAC1 ATOMS=(2 12 15)
M  V30 END COLLECTION
M  V30 END CTAB
M  END
>  <_CXSMILES_Data>  (773) 
|&1:11,14|

$$$$
OCNT-2313861
     RDKit          3D

 53 54  0  0  0  0  0  0  0  0999 V2000
   -5.8220   -1.6862   -0.2380 C   0  0  0  0  0  0  0  0  0  0  0  0
   -4.4750   -1.5620    0.4645 C   0  0  0  0  0  0  0  0  0  0  0  0
   -3.6065   -2.7849    0.1766 C   0  0  0  0  0  0  0  0  0  0  0  0
   -3.7351   -0.3676   -0.0137 N   0  0  0  0  0  0  0  0  0  0  0  0
   -4.3112    1.1295    0.4844 S   0  0  0  0  0  0  0  0  0  0  0  0
   -4.6890    1.0394    1.8728 O   0  0  0  0  0  0  0  0  0  0  0  0
   -5.2192    1.5825   -0.5404 O   0  0  0  0  0  0  0  0  0  0  0  0
   -2.8927    2.0068    0.3690 N   0  0  0  0  0  0  0  0  0  0  0  0
   -2.4471    2.4111   -0.9873 C   0  0  0  0  0  0  0  0  0  0  0  0
   -0.9729    2.8512   -0.9800 C   0  0  0  0  0  0  0  0  0  0  0  0
   -0.0601    1.7568   -0.5817 N   0  0  0  0  0  0  0  0  0  0  0  0
    1.3066    2.2734   -0.3475 C   0  0  0  0  0  0  0  0  0  0  0  0
    2.4029    1.2696   -0.7852 C   0  0  0  0  0  0  0  0  0  0  0  0
    2.1059    0.8335   -2.1174 O   0  0  0  0  0  0  0  0  0  0  0  0
    2.5400    0.0404    0.1202 C   0  0  0  0  0  0  0  0  0  0  0  0
    3.7196   -0.8629   -0.2616 C   0  0  0  0  0  0  0  0  0  0  0  0
    5.0931   -0.2151   -0.0897 C   0  0  0  0  0  0  0  0  0  0  0  0
    6.0685   -1.3863    0.0124 C   0  0  0  0  0  0  0  0  0  0  0  0
    5.2312   -2.6137    0.3695 C   0  0  0  0  0  0  0  0  0  0  0  0
    3.8278   -2.0901    0.6426 C   0  0  0  0  0  0  0  0  0  0  0  0
   -0.6026    1.0080    0.5783 C   0  0  0  0  0  0  0  0  0  0  0  0
   -1.7951    1.6609    1.3071 C   0  0  0  0  0  0  0  0  0  0  0  0
   -6.4822   -0.8514    0.0180 H   0  0  0  0  0  0  0  0  0  0  0  0
   -5.7055   -1.6941   -1.3274 H   0  0  0  0  0  0  0  0  0  0  0  0
   -6.3306   -2.6102    0.0567 H   0  0  0  0  0  0  0  0  0  0  0  0
   -4.6182   -1.5024    1.5488 H   0  0  0  0  0  0  0  0  0  0  0  0
   -3.4168   -2.8972   -0.8968 H   0  0  0  0  0  0  0  0  0  0  0  0
   -2.6349   -2.6965    0.6753 H   0  0  0  0  0  0  0  0  0  0  0  0
   -4.0890   -3.7000    0.5358 H   0  0  0  0  0  0  0  0  0  0  0  0
   -3.6484   -0.3563   -1.0298 H   0  0  0  0  0  0  0  0  0  0  0  0
   -2.5723    1.5854   -1.6967 H   0  0  0  0  0  0  0  0  0  0  0  0
   -3.0681    3.2488   -1.3231 H   0  0  0  0  0  0  0  0  0  0  0  0
   -0.8589    3.7117   -0.3067 H   0  0  0  0  0  0  0  0  0  0  0  0
   -0.7048    3.1870   -1.9888 H   0  0  0  0  0  0  0  0  0  0  0  0
    1.4541    3.1597   -0.9802 H   0  0  0  0  0  0  0  0  0  0  0  0
    1.4531    2.6054    0.6875 H   0  0  0  0  0  0  0  0  0  0  0  0
    3.3554    1.8085   -0.8252 H   0  0  0  0  0  0  0  0  0  0  0  0
    1.1322    0.7340   -2.1314 H   0  0  0  0  0  0  0  0  0  0  0  0
    1.6327   -0.5713    0.0518 H   0  0  0  0  0  0  0  0  0  0  0  0
    2.6445    0.3642    1.1629 H   0  0  0  0  0  0  0  0  0  0  0  0
    3.6074   -1.1994   -1.3011 H   0  0  0  0  0  0  0  0  0  0  0  0
    5.3491    0.4484   -0.9218 H   0  0  0  0  0  0  0  0  0  0  0  0
    5.1312    0.3765    0.8335 H   0  0  0  0  0  0  0  0  0  0  0  0
    6.5840   -1.5474   -0.9414 H   0  0  0  0  0  0  0  0  0  0  0  0
    6.8358   -1.1885    0.7690 H   0  0  0  0  0  0  0  0  0  0  0  0
    5.2150   -3.3085   -0.4787 H   0  0  0  0  0  0  0  0  0  0  0  0
    5.6386   -3.1538    1.2301 H   0  0  0  0  0  0  0  0  0  0  0  0
    3.7342   -1.8083    1.6985 H   0  0  0  0  0  0  0  0  0  0  0  0
    3.0609   -2.8393    0.4229 H   0  0  0  0  0  0  0  0  0  0  0  0
   -0.9237    0.0315    0.1960 H   0  0  0  0  0  0  0  0  0  0  0  0
    0.1718    0.7982    1.3244 H   0  0  0  0  0  0  0  0  0  0  0  0
   -2.1406    0.9883    2.0994 H   0  0  0  0  0  0  0  0  0  0  0  0
   -1.4729    2.5828    1.8064 H   0  0  0  0  0  0  0  0  0  0  0  0
  1  2  1  0
  2  3  1  0
  2  4  1  0
  4  5  1  0
  5  6  2  0
  5  7  2  0
  5  8  1  0
  8  9  1  0
  9 10  1  0
 10 11  1  0
 11 12  1  0
 12 13  1  0
 13 14  1  0
 13 15  1  0
 15 16  1  0
 16 17  1  0
 17 18  1  0
 18 19  1  0
 19 20  1  0
 11 21  1  0
 21 22  1  0
 22  8  1  0
 20 16  1  0
  1 23  1  0
  1 24  1  0
  1 25  1  0
  2 26  1  0
  3 27  1  0
  3 28  1  0
  3 29  1  0
  4 30  1  0
  9 31  1  0
  9 32  1  0
 10 33  1  0
 10 34  1  0
 12 35  1  0
 12 36  1  0
 13 37  1  0
 14 38  1  0
 15 39  1  0
 15 40  1  0
 16 41  1  0
 17 42  1  0
 17 43  1  0
 18 44  1  0
 18 45  1  0
 19 46  1  0
 19 47  1  0
 20 48  1  0
 20 49  1  0
 21 50  1  0
 21 51  1  0
 22 52  1  0
 22 53  1  0
M  END
$$$$
OCNT-2313871
     RDKit          3D

 60 62  0  0  0  0  0  0  0  0999 V2000
   -3.2600   -1.1768   -4.0174 C   0  0  0  0  0  0  0  0  0  0  0  0
   -3.1456   -1.6047   -2.5584 C   0  0  0  0  0  0  0  0  0  0  0  0
   -4.3924   -2.3141   -2.0366 C   0  0  0  0  0  0  0  0  0  0  0  0
   -2.6286   -0.5423   -1.7394 O   0  0  0  0  0  0  0  0  0  0  0  0
   -3.4692    0.2591   -1.0176 C   0  0  0  0  0  0  0  0  0  0  0  0
   -4.5691    0.8902   -1.6143 C   0  0  0  0  0  0  0  0  0  0  0  0
   -5.3928    1.7447   -0.8783 C   0  0  0  0  0  0  0  0  0  0  0  0
   -5.1007    1.9910    0.4612 C   0  0  0  0  0  0  0  0  0  0  0  0
   -6.1228    3.0891    1.4102 S   0  0  0  0  0  0  0  0  0  0  0  0
   -6.7763    2.0639    2.7037 C   0  0  0  0  0  0  0  0  0  0  0  0
   -7.2357    3.4852    0.5658 O   0  0  0  0  0  0  0  0  0  0  0  0
   -5.2431    4.0803    1.9971 O   0  0  0  0  0  0  0  0  0  0  0  0
   -3.9860    1.4055    1.0648 C   0  0  0  0  0  0  0  0  0  0  0  0
   -3.1597    0.5344    0.3319 C   0  0  0  0  0  0  0  0  0  0  0  0
   -2.0004   -0.0529    1.0800 C   0  0  0  0  0  0  0  0  0  0  0  0
   -1.9197    0.0933    2.2979 O   0  0  0  0  0  0  0  0  0  0  0  0
   -1.0564   -0.7329    0.3521 N   0  0  0  0  0  0  0  0  0  0  0  0
    0.1361   -1.3029    0.9509 C   0  0  0  0  0  0  0  0  0  0  0  0
    1.2268   -0.2420    1.2015 C   0  0  0  0  0  0  0  0  0  0  0  0
    2.5134   -0.8088    1.6501 N   0  0  0  0  0  0  0  0  0  0  0  0
    3.4448    0.2585    2.0821 C   0  0  0  0  0  0  0  0  0  0  0  0
    4.3669    0.8395    0.9831 C   0  0  0  0  0  0  0  0  0  0  0  0
    5.0938   -0.2239    0.2799 N   0  0  0  0  0  0  0  0  0  0  0  0
    6.4215   -0.0039   -0.0300 C   0  0  0  0  0  0  0  0  0  0  0  0
    7.2163   -1.0611   -0.2749 N   0  0  0  0  0  0  0  0  0  0  0  0
    8.5036   -0.8214   -0.5919 C   0  0  0  0  0  0  0  0  0  0  0  0
    9.0395    0.4359   -0.6833 C   0  0  0  0  0  0  0  0  0  0  0  0
    8.1620    1.4558   -0.4303 C   0  0  0  0  0  0  0  0  0  0  0  0
    6.8695    1.2620   -0.1070 N   0  0  0  0  0  0  0  0  0  0  0  0
    4.6730   -1.6004    0.5322 C   0  0  0  0  0  0  0  0  0  0  0  0
    3.1300   -1.6628    0.6050 C   0  0  0  0  0  0  0  0  0  0  0  0
   -4.1239   -0.5312   -4.1929 H   0  0  0  0  0  0  0  0  0  0  0  0
   -2.3693   -0.6192   -4.3271 H   0  0  0  0  0  0  0  0  0  0  0  0
   -3.3719   -2.0478   -4.6680 H   0  0  0  0  0  0  0  0  0  0  0  0
   -2.3454   -2.3538   -2.5304 H   0  0  0  0  0  0  0  0  0  0  0  0
   -4.2731   -2.5792   -0.9817 H   0  0  0  0  0  0  0  0  0  0  0  0
   -4.5764   -3.2304   -2.6050 H   0  0  0  0  0  0  0  0  0  0  0  0
   -5.2886   -1.6957   -2.1230 H   0  0  0  0  0  0  0  0  0  0  0  0
   -4.8002    0.7473   -2.6636 H   0  0  0  0  0  0  0  0  0  0  0  0
   -6.2427    2.2224   -1.3638 H   0  0  0  0  0  0  0  0  0  0  0  0
   -5.9590    1.7118    3.3352 H   0  0  0  0  0  0  0  0  0  0  0  0
   -7.3151    1.2264    2.2546 H   0  0  0  0  0  0  0  0  0  0  0  0
   -7.4642    2.6701    3.2998 H   0  0  0  0  0  0  0  0  0  0  0  0
   -3.7412    1.6382    2.1013 H   0  0  0  0  0  0  0  0  0  0  0  0
   -1.1629   -0.7668   -0.6623 H   0  0  0  0  0  0  0  0  0  0  0  0
   -0.1385   -1.7903    1.8943 H   0  0  0  0  0  0  0  0  0  0  0  0
    0.4792   -2.0757    0.2563 H   0  0  0  0  0  0  0  0  0  0  0  0
    1.3683    0.3641    0.2956 H   0  0  0  0  0  0  0  0  0  0  0  0
    0.8468    0.4425    1.9714 H   0  0  0  0  0  0  0  0  0  0  0  0
    4.0846   -0.1783    2.8610 H   0  0  0  0  0  0  0  0  0  0  0  0
    2.9086    1.0738    2.5840 H   0  0  0  0  0  0  0  0  0  0  0  0
    3.7674    1.4008    0.2539 H   0  0  0  0  0  0  0  0  0  0  0  0
    5.0398    1.5535    1.4761 H   0  0  0  0  0  0  0  0  0  0  0  0
    9.1070   -1.7060   -0.7798 H   0  0  0  0  0  0  0  0  0  0  0  0
   10.0754    0.6096   -0.9411 H   0  0  0  0  0  0  0  0  0  0  0  0
    8.4746    2.4939   -0.4779 H   0  0  0  0  0  0  0  0  0  0  0  0
    5.1130   -1.9730    1.4657 H   0  0  0  0  0  0  0  0  0  0  0  0
    4.9917   -2.2635   -0.2803 H   0  0  0  0  0  0  0  0  0  0  0  0
    2.7537   -1.3802   -0.3880 H   0  0  0  0  0  0  0  0  0  0  0  0
    2.8235   -2.7005    0.7800 H   0  0  0  0  0  0  0  0  0  0  0  0
  1  2  1  0
  2  3  1  0
  2  4  1  0
  4  5  1  0
  5  6  1  0
  6  7  2  0
  7  8  1  0
  8  9  1  0
  9 10  1  0
  9 11  2  0
  9 12  2  0
  8 13  2  0
 13 14  1  0
 14 15  1  0
 15 16  2  0
 15 17  1  0
 17 18  1  0
 18 19  1  0
 19 20  1  0
 20 21  1  0
 21 22  1  0
 22 23  1  0
 23 24  1  0
 24 25  2  0
 25 26  1  0
 26 27  2  0
 27 28  1  0
 28 29  2  0
 23 30  1  0
 30 31  1  0
 14  5  2  0
 31 20  1  0
 29 24  1  0
  1 32  1  0
  1 33  1  0
  1 34  1  0
  2 35  1  0
  3 36  1  0
  3 37  1  0
  3 38  1  0
  6 39  1  0
  7 40  1  0
 10 41  1  0
 10 42  1  0
 10 43  1  0
 13 44  1  0
 17 45  1  0
 18 46  1  0
 18 47  1  0
 19 48  1  0
 19 49  1  0
 21 50  1  0
 21 51  1  0
 22 52  1  0
 22 53  1  0
 26 54  1  0
 27 55  1  0
 28 56  1  0
 30 57  1  0
 30 58  1  0
 31 59  1  0
 31 60  1  0
M  END
$$$$
OCNT-2313891
     RDKit          3D

 52 54  0  0  0  0  0  0  0  0999 V2000
   -3.1414    1.2845    0.4381 C   0  0  0  0  0  0  0  0  0  0  0  0
   -3.3751   -0.1634    0.6013 N   0  0  0  0  0  0  0  0  0  0  0  0
   -4.6590   -0.4984    1.2657 C   0  0  0  0  0  0  0  0  0  0  0  0
   -5.9117    0.0460    0.6201 C   0  0  0  0  0  0  0  0  0  0  0  0
   -6.5031   -0.6169   -0.4643 C   0  0  0  0  0  0  0  0  0  0  0  0
   -7.6560   -0.1080   -1.0647 C   0  0  0  0  0  0  0  0  0  0  0  0
   -8.2328    1.0666   -0.5867 C   0  0  0  0  0  0  0  0  0  0  0  0
   -7.6576    1.7344    0.4920 C   0  0  0  0  0  0  0  0  0  0  0  0
   -6.5033    1.2281    1.0924 C   0  0  0  0  0  0  0  0  0  0  0  0
   -2.9594   -1.1424   -0.7242 S   0  0  0  0  0  0  0  0  0  0  0  0
   -3.5080   -0.5470   -1.9236 O   0  0  0  0  0  0  0  0  0  0  0  0
   -3.2321   -2.5225   -0.3808 O   0  0  0  0  0  0  0  0  0  0  0  0
   -1.1906   -0.9684   -0.7802 C   0  0  0  0  0  0  0  0  0  0  0  0
   -0.4174   -1.5790    0.2088 C   0  0  0  0  0  0  0  0  0  0  0  0
    0.9734   -1.4548    0.1670 C   0  0  0  0  0  0  0  0  0  0  0  0
    1.5961   -0.7275   -0.8571 C   0  0  0  0  0  0  0  0  0  0  0  0
    2.9968   -0.6513   -0.8252 N   0  0  0  0  0  0  0  0  0  0  0  0
    3.8451    0.0459   -1.6664 C   0  0  0  0  0  0  0  0  0  0  0  0
    3.5217    0.7423   -2.6239 O   0  0  0  0  0  0  0  0  0  0  0  0
    5.3258   -0.1825   -1.3168 C   0  0  0  0  0  0  0  0  0  0  0  0
    5.4910   -0.5319    0.1233 N   0  0  0  0  0  0  0  0  0  0  0  0
    6.8506   -1.0374    0.3820 C   0  0  0  0  0  0  0  0  0  0  0  0
    7.7336    0.1901    0.5334 C   0  0  0  0  0  0  0  0  0  0  0  0
    6.7938    1.2926    0.9979 C   0  0  0  0  0  0  0  0  0  0  0  0
    5.4028    0.6726    0.9742 C   0  0  0  0  0  0  0  0  0  0  0  0
    0.8085   -0.1326   -1.8467 C   0  0  0  0  0  0  0  0  0  0  0  0
   -0.5849   -0.2542   -1.8147 C   0  0  0  0  0  0  0  0  0  0  0  0
   -2.0854    1.4846    0.2386 H   0  0  0  0  0  0  0  0  0  0  0  0
   -3.7454    1.7004   -0.3731 H   0  0  0  0  0  0  0  0  0  0  0  0
   -3.3893    1.8127    1.3647 H   0  0  0  0  0  0  0  0  0  0  0  0
   -4.5986   -0.1288    2.2987 H   0  0  0  0  0  0  0  0  0  0  0  0
   -4.7554   -1.5843    1.3865 H   0  0  0  0  0  0  0  0  0  0  0  0
   -6.0665   -1.5341   -0.8558 H   0  0  0  0  0  0  0  0  0  0  0  0
   -8.0994   -0.6283   -1.9098 H   0  0  0  0  0  0  0  0  0  0  0  0
   -9.1292    1.4615   -1.0574 H   0  0  0  0  0  0  0  0  0  0  0  0
   -8.1077    2.6509    0.8644 H   0  0  0  0  0  0  0  0  0  0  0  0
   -6.0687    1.7638    1.9332 H   0  0  0  0  0  0  0  0  0  0  0  0
   -0.8897   -2.1498    1.0052 H   0  0  0  0  0  0  0  0  0  0  0  0
    1.5642   -1.9356    0.9431 H   0  0  0  0  0  0  0  0  0  0  0  0
    3.4878   -1.1152   -0.0627 H   0  0  0  0  0  0  0  0  0  0  0  0
    5.6526   -1.0208   -1.9442 H   0  0  0  0  0  0  0  0  0  0  0  0
    5.8980    0.7084   -1.5989 H   0  0  0  0  0  0  0  0  0  0  0  0
    7.2147   -1.7256   -0.3884 H   0  0  0  0  0  0  0  0  0  0  0  0
    6.8375   -1.5987    1.3249 H   0  0  0  0  0  0  0  0  0  0  0  0
    8.5464    0.0201    1.2463 H   0  0  0  0  0  0  0  0  0  0  0  0
    8.1827    0.4648   -0.4282 H   0  0  0  0  0  0  0  0  0  0  0  0
    6.8551    2.1488    0.3168 H   0  0  0  0  0  0  0  0  0  0  0  0
    7.0526    1.6433    2.0023 H   0  0  0  0  0  0  0  0  0  0  0  0
    5.1292    0.3550    1.9883 H   0  0  0  0  0  0  0  0  0  0  0  0
    4.6359    1.3859    0.6533 H   0  0  0  0  0  0  0  0  0  0  0  0
    1.2517    0.4277   -2.6648 H   0  0  0  0  0  0  0  0  0  0  0  0
   -1.1800    0.2087   -2.5990 H   0  0  0  0  0  0  0  0  0  0  0  0
  1  2  1  0
  2  3  1  0
  3  4  1  0
  4  5  2  0
  5  6  1  0
  6  7  2  0
  7  8  1  0
  8  9  2  0
  2 10  1  0
 10 11  2  0
 10 12  2  0
 10 13  1  0
 13 14  1  0
 14 15  2  0
 15 16  1  0
 16 17  1  0
 17 18  1  0
 18 19  2  0
 18 20  1  0
 20 21  1  0
 21 22  1  0
 22 23  1  0
 23 24  1  0
 24 25  1  0
 16 26  2  0
 26 27  1  0
  9  4  1  0
 27 13  2  0
 25 21  1  0
  1 28  1  0
  1 29  1  0
  1 30  1  0
  3 31  1  0
  3 32  1  0
  5 33  1  0
  6 34  1  0
  7 35  1  0
  8 36  1  0
  9 37  1  0
 14 38  1  0
 15 39  1  0
 17 40  1  0
 20 41  1  0
 20 42  1  0
 22 43  1  0
 22 44  1  0
 23 45  1  0
 23 46  1  0
 24 47  1  0
 24 48  1  0
 25 49  1  0
 25 50  1  0
 26 51  1  0
 27 52  1  0
M  END
$$$$
OCNT-2313919
     RDKit          3D

 36 37  0  0  0  0  0  0  0  0999 V2000
   -2.3779   -2.8501   -1.7982 C   0  0  0  0  0  0  0  0  0  0  0  0
   -1.5596   -1.7487   -1.2037 C   0  0  0  0  0  0  0  0  0  0  0  0
   -2.0689   -0.5718   -0.6639 C   0  0  0  0  0  0  0  0  0  0  0  0
   -3.4695   -0.1618   -0.5630 C   0  0  0  0  0  0  0  0  0  0  0  0
   -4.4036   -0.8367   -0.9926 O   0  0  0  0  0  0  0  0  0  0  0  0
   -3.7018    1.0452    0.0665 N   0  0  0  0  0  0  0  0  0  0  0  0
   -5.0457    1.4559    0.4277 C   0  0  0  0  0  0  0  0  0  0  0  0
   -5.4334    0.8916    1.7844 C   0  0  0  0  0  0  0  0  0  0  0  0
   -4.6823    0.4350    2.6324 O   0  0  0  0  0  0  0  0  0  0  0  0
   -6.7563    0.9918    2.0291 O   0  0  0  0  0  0  0  0  0  0  0  0
   -0.8088    0.4377   -0.0825 S   0  0  0  0  0  0  0  0  0  0  0  0
    0.3998   -0.6545   -0.5282 C   0  0  0  0  0  0  0  0  0  0  0  0
    1.7448   -0.4130   -0.3157 N   0  0  0  0  0  0  0  0  0  0  0  0
    2.3035    0.6897    0.3008 C   0  0  0  0  0  0  0  0  0  0  0  0
    1.7154    1.6686    0.7474 O   0  0  0  0  0  0  0  0  0  0  0  0
    3.7964    0.7064    0.3715 C   0  0  0  0  0  0  0  0  0  0  0  0
    4.4090    1.9662    0.2195 C   0  0  0  0  0  0  0  0  0  0  0  0
    5.7977    2.0954    0.2664 C   0  0  0  0  0  0  0  0  0  0  0  0
    6.5787    0.9676    0.4731 C   0  0  0  0  0  0  0  0  0  0  0  0
    7.9112    1.0871    0.5187 F   0  0  0  0  0  0  0  0  0  0  0  0
    5.9992   -0.2841    0.6395 C   0  0  0  0  0  0  0  0  0  0  0  0
    4.6067   -0.4193    0.5940 C   0  0  0  0  0  0  0  0  0  0  0  0
    3.9798   -2.0089    0.8561 Cl  0  0  0  0  0  0  0  0  0  0  0  0
   -0.1264   -1.7810   -1.1166 C   0  0  0  0  0  0  0  0  0  0  0  0
   -3.0737   -3.2557   -1.0568 H   0  0  0  0  0  0  0  0  0  0  0  0
   -2.9476   -2.4844   -2.6584 H   0  0  0  0  0  0  0  0  0  0  0  0
   -1.7421   -3.6719   -2.1438 H   0  0  0  0  0  0  0  0  0  0  0  0
   -2.9257    1.4341    0.5906 H   0  0  0  0  0  0  0  0  0  0  0  0
   -5.7561    1.1097   -0.3286 H   0  0  0  0  0  0  0  0  0  0  0  0
   -5.0565    2.5476    0.4843 H   0  0  0  0  0  0  0  0  0  0  0  0
   -6.8622    0.5914    2.9178 H   0  0  0  0  0  0  0  0  0  0  0  0
    2.3670   -1.1534   -0.6171 H   0  0  0  0  0  0  0  0  0  0  0  0
    3.7982    2.8553    0.0627 H   0  0  0  0  0  0  0  0  0  0  0  0
    6.2695    3.0664    0.1473 H   0  0  0  0  0  0  0  0  0  0  0  0
    6.6431   -1.1416    0.8129 H   0  0  0  0  0  0  0  0  0  0  0  0
    0.4782   -2.6059   -1.4739 H   0  0  0  0  0  0  0  0  0  0  0  0
  1  2  1  0
  2  3  2  0
  3  4  1  0
  4  5  2  0
  4  6  1  0
  6  7  1  0
  7  8  1  0
  8  9  2  0
  8 10  1  0
  3 11  1  0
 11 12  1  0
 12 13  1  0
 13 14  1  0
 14 15  2  0
 14 16  1  0
 16 17  1  0
 17 18  2  0
 18 19  1  0
 19 20  1  0
 19 21  2  0
 21 22  1  0
 22 23  1  0
 12 24  2  0
 24  2  1  0
 22 16  2  0
  1 25  1  0
  1 26  1  0
  1 27  1  0
  6 28  1  0
  7 29  1  0
  7 30  1  0
 10 31  1  0
 13 32  1  0
 17 33  1  0
 18 34  1  0
 21 35  1  0
 24 36  1  0
M  END
$$$$
OCNT-2313933
     RDKit          3D

 37 41  0  0  0  0  0  0  0  0999 V2000
   -3.6143    0.8633    0.8554 C   0  0  0  0  0  0  0  0  0  0  0  0
   -4.8680    0.2802    1.0634 C   0  0  0  0  0  0  0  0  0  0  0  0
   -5.3377   -0.5857    0.1010 C   0  0  0  0  0  0  0  0  0  0  0  0
   -4.6092   -0.8773   -1.0280 C   0  0  0  0  0  0  0  0  0  0  0  0
   -3.3700   -0.3183   -1.2612 C   0  0  0  0  0  0  0  0  0  0  0  0
   -2.8586    0.5765   -0.3069 C   0  0  0  0  0  0  0  0  0  0  0  0
   -1.4990    1.2100   -0.4992 C   0  0  0  0  0  0  0  0  0  0  0  0
   -0.5562    0.5863    0.4094 N   0  0  0  0  0  0  0  0  0  0  0  0
    0.7702    0.9958    0.2739 C   0  0  0  0  0  0  0  0  0  0  0  0
    1.0670    2.2315   -0.2143 N   0  0  0  0  0  0  0  0  0  0  0  0
    2.3607    2.6103   -0.3106 C   0  0  0  0  0  0  0  0  0  0  0  0
    3.4594    1.9041    0.0122 N   0  0  0  0  0  0  0  0  0  0  0  0
    3.1220    0.6885    0.4824 C   0  0  0  0  0  0  0  0  0  0  0  0
    1.8479    0.1740    0.6433 C   0  0  0  0  0  0  0  0  0  0  0  0
    1.9213   -1.1000    1.1516 N   0  0  0  0  0  0  0  0  0  0  0  0
    3.2072   -1.3993    1.3207 N   0  0  0  0  0  0  0  0  0  0  0  0
    3.9233   -0.3330    0.9135 N   0  0  0  0  0  0  0  0  0  0  0  0
    5.3982   -0.2807    0.9729 C   0  0  0  0  0  0  0  0  0  0  0  0
    6.2660   -1.4765    0.6545 C   0  0  0  0  0  0  0  0  0  0  0  0
    6.2518   -0.2989   -0.2740 C   0  0  0  0  0  0  0  0  0  0  0  0
   -5.2490   -1.7556   -1.8460 O   0  0  0  0  0  0  0  0  0  0  0  0
   -6.4631   -1.9843   -1.1006 C   0  0  0  0  0  0  0  0  0  0  0  0
   -6.5275   -1.2431    0.1352 O   0  0  0  0  0  0  0  0  0  0  0  0
   -3.2107    1.5427    1.6051 H   0  0  0  0  0  0  0  0  0  0  0  0
   -5.4485    0.4972    1.9528 H   0  0  0  0  0  0  0  0  0  0  0  0
   -2.8171   -0.5720   -2.1593 H   0  0  0  0  0  0  0  0  0  0  0  0
   -1.5848    2.2872   -0.3073 H   0  0  0  0  0  0  0  0  0  0  0  0
   -1.1778    1.0848   -1.5413 H   0  0  0  0  0  0  0  0  0  0  0  0
   -0.6378   -0.4241    0.4877 H   0  0  0  0  0  0  0  0  0  0  0  0
    2.5327    3.6105   -0.6989 H   0  0  0  0  0  0  0  0  0  0  0  0
    5.7357    0.3576    1.7840 H   0  0  0  0  0  0  0  0  0  0  0  0
    5.7857   -2.3913    0.3240 H   0  0  0  0  0  0  0  0  0  0  0  0
    7.1478   -1.6372    1.2642 H   0  0  0  0  0  0  0  0  0  0  0  0
    7.1236    0.3451   -0.2974 H   0  0  0  0  0  0  0  0  0  0  0  0
    5.7633   -0.4161   -1.2350 H   0  0  0  0  0  0  0  0  0  0  0  0
   -6.5378   -3.0538   -0.8722 H   0  0  0  0  0  0  0  0  0  0  0  0
   -7.3169   -1.6983   -1.7257 H   0  0  0  0  0  0  0  0  0  0  0  0
  1  2  2  0
  2  3  1  0
  3  4  2  0
  4  5  1  0
  5  6  2  0
  6  7  1  0
  7  8  1  0
  8  9  1  0
  9 10  1  0
 10 11  2  0
 11 12  1  0
 12 13  2  0
 13 14  1  0
 14 15  1  0
 15 16  2  0
 16 17  1  0
 17 18  1  0
 18 19  1  0
 19 20  1  0
  4 21  1  0
 21 22  1  0
 22 23  1  0
  6  1  1  0
 14  9  2  0
 20 18  1  0
 23  3  1  0
 17 13  1  0
  1 24  1  0
  2 25  1  0
  5 26  1  0
  7 27  1  0
  7 28  1  0
  8 29  1  0
 11 30  1  0
 18 31  1  0
 19 32  1  0
 19 33  1  0
 20 34  1  0
 20 35  1  0
 22 36  1  0
 22 37  1  0
M  END
$$$$
OCNT-2313944
     RDKit          3D

 58 61  0  0  0  0  0  0  0  0999 V2000
    7.6979    1.0751    0.9713 C   0  0  0  0  0  0  0  0  0  0  0  0
    6.3421    0.6375    0.7511 N   0  0  0  0  0  0  0  0  0  0  0  0
    5.8958    0.3150   -0.5135 C   0  0  0  0  0  0  0  0  0  0  0  0
    6.6059    0.4236   -1.5095 O   0  0  0  0  0  0  0  0  0  0  0  0
    4.4683   -0.2270   -0.5769 C   0  0  0  0  0  0  0  0  0  0  0  0
    4.3963   -1.5969    0.1144 C   0  0  0  0  0  0  0  0  0  0  0  0
    3.9559   -0.3174   -2.0286 C   0  0  0  0  0  0  0  0  0  0  0  0
    2.4430   -0.2084   -1.8983 C   0  0  0  0  0  0  0  0  0  0  0  0
    2.2288    0.5531   -0.6798 N   0  0  0  0  0  0  0  0  0  0  0  0
    1.0596    1.1045   -0.2218 C   0  0  0  0  0  0  0  0  0  0  0  0
    1.0083    1.8058    0.7841 O   0  0  0  0  0  0  0  0  0  0  0  0
   -0.0458    0.8108   -0.9739 N   0  0  0  0  0  0  0  0  0  0  0  0
   -1.3780    1.2064   -0.5318 C   0  0  0  0  0  0  0  0  0  0  0  0
   -1.9224    0.3175    0.6078 C   0  0  0  0  0  0  0  0  0  0  0  0
   -2.0413   -1.1711    0.2719 C   0  0  0  0  0  0  0  0  0  0  0  0
   -2.6225   -1.5879   -0.9461 C   0  0  0  0  0  0  0  0  0  0  0  0
   -2.7284   -2.9410   -1.2789 C   0  0  0  0  0  0  0  0  0  0  0  0
   -2.2536   -3.9069   -0.3990 C   0  0  0  0  0  0  0  0  0  0  0  0
   -2.3739   -5.5721   -0.8122 Cl  0  0  0  0  0  0  0  0  0  0  0  0
   -1.6794   -3.5327    0.8107 C   0  0  0  0  0  0  0  0  0  0  0  0
   -1.5744   -2.1773    1.1465 C   0  0  0  0  0  0  0  0  0  0  0  0
   -0.8319   -1.8265    2.6717 Cl  0  0  0  0  0  0  0  0  0  0  0  0
   -3.2781    0.7213    1.1509 C   0  0  0  0  0  0  0  0  0  0  0  0
   -3.5793    0.7559    2.5047 C   0  0  0  0  0  0  0  0  0  0  0  0
   -4.8704    1.1662    2.6647 N   0  0  0  0  0  0  0  0  0  0  0  0
   -5.4403    1.4202    1.4413 C   0  0  0  0  0  0  0  0  0  0  0  0
   -6.7346    1.8645    1.1398 C   0  0  0  0  0  0  0  0  0  0  0  0
   -7.0645    2.0509   -0.2032 C   0  0  0  0  0  0  0  0  0  0  0  0
   -6.1313    1.8055   -1.2041 C   0  0  0  0  0  0  0  0  0  0  0  0
   -4.8406    1.3639   -0.8836 C   0  0  0  0  0  0  0  0  0  0  0  0
   -4.4720    1.1578    0.4660 C   0  0  0  0  0  0  0  0  0  0  0  0
    3.4766    0.7695    0.0340 C   0  0  0  0  0  0  0  0  0  0  0  0
    8.0102    1.7632    0.1804 H   0  0  0  0  0  0  0  0  0  0  0  0
    8.3527    0.1993    0.9724 H   0  0  0  0  0  0  0  0  0  0  0  0
    7.7473    1.5754    1.9416 H   0  0  0  0  0  0  0  0  0  0  0  0
    5.7983    0.3642    1.5608 H   0  0  0  0  0  0  0  0  0  0  0  0
    4.6800   -1.5327    1.1700 H   0  0  0  0  0  0  0  0  0  0  0  0
    5.0796   -2.3091   -0.3621 H   0  0  0  0  0  0  0  0  0  0  0  0
    3.3886   -2.0239    0.0764 H   0  0  0  0  0  0  0  0  0  0  0  0
    4.3227    0.5286   -2.6240 H   0  0  0  0  0  0  0  0  0  0  0  0
    4.2615   -1.2338   -2.5431 H   0  0  0  0  0  0  0  0  0  0  0  0
    1.9836    0.2926   -2.7559 H   0  0  0  0  0  0  0  0  0  0  0  0
    1.9788   -1.1920   -1.7707 H   0  0  0  0  0  0  0  0  0  0  0  0
    0.0121   -0.0185   -1.5431 H   0  0  0  0  0  0  0  0  0  0  0  0
   -2.0029    1.1798   -1.4264 H   0  0  0  0  0  0  0  0  0  0  0  0
   -1.3352    2.2508   -0.1984 H   0  0  0  0  0  0  0  0  0  0  0  0
   -1.2033    0.4400    1.4258 H   0  0  0  0  0  0  0  0  0  0  0  0
   -3.0142   -0.8633   -1.6554 H   0  0  0  0  0  0  0  0  0  0  0  0
   -3.1868   -3.2304   -2.2225 H   0  0  0  0  0  0  0  0  0  0  0  0
   -1.3113   -4.2939    1.4948 H   0  0  0  0  0  0  0  0  0  0  0  0
   -2.9705    0.5195    3.3686 H   0  0  0  0  0  0  0  0  0  0  0  0
   -5.3409    1.2802    3.5522 H   0  0  0  0  0  0  0  0  0  0  0  0
   -7.4617    2.0606    1.9216 H   0  0  0  0  0  0  0  0  0  0  0  0
   -8.0617    2.3948   -0.4678 H   0  0  0  0  0  0  0  0  0  0  0  0
   -6.4029    1.9590   -2.2462 H   0  0  0  0  0  0  0  0  0  0  0  0
   -4.1432    1.1886   -1.6943 H   0  0  0  0  0  0  0  0  0  0  0  0
    3.3273    0.6298    1.1106 H   0  0  0  0  0  0  0  0  0  0  0  0
    3.7762    1.8115   -0.1356 H   0  0  0  0  0  0  0  0  0  0  0  0
  1  2  1  0
  2  3  1  0
  3  4  2  0
  3  5  1  0
  5  6  1  0
  5  7  1  0
  7  8  1  0
  8  9  1  0
  9 10  1  0
 10 11  2  0
 10 12  1  0
 12 13  1  0
 13 14  1  0
 14 15  1  0
 15 16  1  0
 16 17  2  0
 17 18  1  0
 18 19  1  0
 18 20  2  0
 20 21  1  0
 21 22  1  0
 14 23  1  0
 23 24  2  0
 24 25  1  0
 25 26  1  0
 26 27  2  0
 27 28  1  0
 28 29  2  0
 29 30  1  0
 30 31  2  0
  9 32  1  0
 32  5  1  0
 21 15  2  0
 31 23  1  0
 31 26  1  0
  1 33  1  0
  1 34  1  0
  1 35  1  0
  2 36  1  0
  6 37  1  0
  6 38  1  0
  6 39  1  0
  7 40  1  0
  7 41  1  0
  8 42  1  0
  8 43  1  0
 12 44  1  0
 13 45  1  0
 13 46  1  0
 14 47  1  0
 16 48  1  0
 17 49  1  0
 20 50  1  0
 24 51  1  0
 25 52  1  0
 27 53  1  0
 28 54  1  0
 29 55  1  0
 30 56  1  0
 32 57  1  0
 32 58  1  0
M  END
$$$$
OCNT-2313982
     RDKit          3D

 47 48  0  0  0  0  0  0  0  0999 V2000
   -2.5349   -3.7700    0.1640 C   0  0  0  0  0  0  0  0  0  0  0  0
   -2.8256   -2.5045    0.9134 C   0  0  0  0  0  0  0  0  0  0  0  0
   -1.7321   -1.7509    1.2167 N   0  0  0  0  0  0  0  0  0  0  0  0
   -1.8976   -0.5859    1.8789 C   0  0  0  0  0  0  0  0  0  0  0  0
   -0.7845    0.2367    2.1748 N   0  0  0  0  0  0  0  0  0  0  0  0
    0.2044   -0.5515    2.9257 C   0  0  0  0  0  0  0  0  0  0  0  0
   -0.2259    0.7748    0.9101 C   0  0  0  0  0  0  0  0  0  0  0  0
    0.3633    2.1790    1.1578 C   0  0  0  0  0  0  0  0  0  0  0  0
    0.9839    2.7627   -0.0429 N   0  0  0  0  0  0  0  0  0  0  0  0
    0.0987    3.4604   -0.9701 C   0  0  0  0  0  0  0  0  0  0  0  0
    2.2514    2.2808   -0.3921 C   0  0  0  0  0  0  0  0  0  0  0  0
    2.9215    1.6031    0.3902 O   0  0  0  0  0  0  0  0  0  0  0  0
    2.7974    2.6763   -1.7597 C   0  0  0  0  0  0  0  0  0  0  0  0
    3.8999    1.7278   -2.2248 C   0  0  0  0  0  0  0  0  0  0  0  0
    3.3636    0.3648   -2.5353 C   0  0  0  0  0  0  0  0  0  0  0  0
    2.1461    0.0586   -2.9456 N   0  0  0  0  0  0  0  0  0  0  0  0
    2.1157   -1.3074   -3.0299 C   0  0  0  0  0  0  0  0  0  0  0  0
    3.3551   -1.8390   -2.7438 C   0  0  0  0  0  0  0  0  0  0  0  0
    4.1398   -0.7622   -2.4374 N   0  0  0  0  0  0  0  0  0  0  0  0
   -3.1571   -0.1316    2.2674 C   0  0  0  0  0  0  0  0  0  0  0  0
   -4.2817   -0.8921    1.9694 C   0  0  0  0  0  0  0  0  0  0  0  0
   -4.1088   -2.0911    1.2741 C   0  0  0  0  0  0  0  0  0  0  0  0
   -5.2824   -2.8817    0.9584 N   0  0  0  0  0  0  0  0  0  0  0  0
   -5.3518   -3.3868   -0.1692 O   0  0  0  0  0  0  0  0  0  0  0  0
   -6.1541   -2.9833    1.8436 O   0  0  0  0  0  0  0  0  0  0  0  0
   -3.0256   -4.6224    0.6351 H   0  0  0  0  0  0  0  0  0  0  0  0
   -2.8640   -3.6723   -0.8770 H   0  0  0  0  0  0  0  0  0  0  0  0
   -1.4596   -3.9743    0.1485 H   0  0  0  0  0  0  0  0  0  0  0  0
    1.0565    0.0822    3.1997 H   0  0  0  0  0  0  0  0  0  0  0  0
    0.5964   -1.4041    2.3502 H   0  0  0  0  0  0  0  0  0  0  0  0
   -0.2295   -0.9224    3.8615 H   0  0  0  0  0  0  0  0  0  0  0  0
    0.5414    0.0965    0.4960 H   0  0  0  0  0  0  0  0  0  0  0  0
   -1.0113    0.8727    0.1358 H   0  0  0  0  0  0  0  0  0  0  0  0
    1.1184    2.1277    1.9499 H   0  0  0  0  0  0  0  0  0  0  0  0
   -0.4206    2.8570    1.5240 H   0  0  0  0  0  0  0  0  0  0  0  0
    0.6661    4.1439   -1.6073 H   0  0  0  0  0  0  0  0  0  0  0  0
   -0.4160    2.7239   -1.5880 H   0  0  0  0  0  0  0  0  0  0  0  0
   -0.6317    4.0512   -0.4080 H   0  0  0  0  0  0  0  0  0  0  0  0
    1.9893    2.6903   -2.5115 H   0  0  0  0  0  0  0  0  0  0  0  0
    3.2087    3.6890   -1.6717 H   0  0  0  0  0  0  0  0  0  0  0  0
    4.6983    1.6610   -1.4716 H   0  0  0  0  0  0  0  0  0  0  0  0
    4.3588    2.1328   -3.1414 H   0  0  0  0  0  0  0  0  0  0  0  0
    1.2041   -1.8357   -3.3120 H   0  0  0  0  0  0  0  0  0  0  0  0
    3.7241   -2.8577   -2.7095 H   0  0  0  0  0  0  0  0  0  0  0  0
    5.1111   -0.7837   -2.1498 H   0  0  0  0  0  0  0  0  0  0  0  0
   -3.2524    0.8041    2.8091 H   0  0  0  0  0  0  0  0  0  0  0  0
   -5.2670   -0.5466    2.2699 H   0  0  0  0  0  0  0  0  0  0  0  0
  1  2  1  0
  2  3  1  0
  3  4  2  0
  4  5  1  0
  5  6  1  0
  5  7  1  0
  7  8  1  0
  8  9  1  0
  9 10  1  0
  9 11  1  0
 11 12  2  0
 11 13  1  0
 13 14  1  0
 14 15  1  0
 15 16  2  0
 16 17  1  0
 17 18  2  0
 18 19  1  0
  4 20  1  0
 20 21  2  0
 21 22  1  0
 22 23  1  0
 23 24  2  0
 23 25  1  0
 22  2  2  0
 19 15  1  0
  1 26  1  0
  1 27  1  0
  1 28  1  0
  6 29  1  0
  6 30  1  0
  6 31  1  0
  7 32  1  0
  7 33  1  0
  8 34  1  0
  8 35  1  0
 10 36  1  0
 10 37  1  0
 10 38  1  0
 13 39  1  0
 13 40  1  0
 14 41  1  0
 14 42  1  0
 17 43  1  0
 18 44  1  0
 19 45  1  0
 20 46  1  0
 21 47  1  0
M  CHG  2  23   1  25  -1
M  END
$$$$
OCNT-2313984
     RDKit          3D

 45 47  0  0  0  0  0  0  0  0999 V2000
    6.6361    0.6785   -0.3282 C   0  0  0  0  0  0  0  0  0  0  0  0
    5.2342    0.4389    0.1475 C   0  0  0  0  0  0  0  0  0  0  0  0
    4.8991   -0.7550    0.7952 C   0  0  0  0  0  0  0  0  0  0  0  0
    3.6014   -0.9659    1.2680 C   0  0  0  0  0  0  0  0  0  0  0  0
    2.6161    0.0160    1.1069 C   0  0  0  0  0  0  0  0  0  0  0  0
    1.2054   -0.2104    1.6122 C   0  0  0  0  0  0  0  0  0  0  0  0
    0.1820   -0.8410    0.6038 C   0  0  0  0  0  0  0  0  0  0  0  0
    0.6602   -2.2449    0.1785 C   0  0  0  0  0  0  0  0  0  0  0  0
   -1.1517   -0.9882    1.3642 C   0  0  0  0  0  0  0  0  0  0  0  0
    0.0706    0.0618   -0.5680 N   0  0  0  0  0  0  0  0  0  0  0  0
   -0.9509   -0.2657   -1.5756 C   0  0  0  0  0  0  0  0  0  0  0  0
   -2.3401    0.2861   -1.2971 C   0  0  0  0  0  0  0  0  0  0  0  0
   -2.4916    1.6337   -0.9488 C   0  0  0  0  0  0  0  0  0  0  0  0
   -3.7654    2.1542   -0.7102 C   0  0  0  0  0  0  0  0  0  0  0  0
   -4.8530    1.2808   -0.8417 C   0  0  0  0  0  0  0  0  0  0  0  0
   -6.2635    1.3802   -0.6970 C   0  0  0  0  0  0  0  0  0  0  0  0
   -6.8005    0.1389   -0.9704 C   0  0  0  0  0  0  0  0  0  0  0  0
   -5.7640   -0.7069   -1.2754 N   0  0  0  0  0  0  0  0  0  0  0  0
   -4.5764   -0.0323   -1.2021 C   0  0  0  0  0  0  0  0  0  0  0  0
   -3.3744   -0.5835   -1.4454 N   0  0  0  0  0  0  0  0  0  0  0  0
    2.9606    1.2193    0.4777 C   0  0  0  0  0  0  0  0  0  0  0  0
    4.2578    1.4302    0.0050 C   0  0  0  0  0  0  0  0  0  0  0  0
    6.6446    1.3376   -1.2027 H   0  0  0  0  0  0  0  0  0  0  0  0
    7.2280    1.1396    0.4684 H   0  0  0  0  0  0  0  0  0  0  0  0
    7.1136   -0.2610   -0.6257 H   0  0  0  0  0  0  0  0  0  0  0  0
    5.6483   -1.5305    0.9380 H   0  0  0  0  0  0  0  0  0  0  0  0
    3.3671   -1.9036    1.7666 H   0  0  0  0  0  0  0  0  0  0  0  0
    0.8146    0.7531    1.9711 H   0  0  0  0  0  0  0  0  0  0  0  0
    1.2654   -0.8389    2.5124 H   0  0  0  0  0  0  0  0  0  0  0  0
    1.5474   -2.1977   -0.4622 H   0  0  0  0  0  0  0  0  0  0  0  0
   -0.1122   -2.7905   -0.3740 H   0  0  0  0  0  0  0  0  0  0  0  0
    0.9137   -2.8532    1.0545 H   0  0  0  0  0  0  0  0  0  0  0  0
   -1.5661   -0.0119    1.6397 H   0  0  0  0  0  0  0  0  0  0  0  0
   -1.9016   -1.5314    0.7808 H   0  0  0  0  0  0  0  0  0  0  0  0
   -1.0104   -1.5540    2.2930 H   0  0  0  0  0  0  0  0  0  0  0  0
    0.9776    0.0585   -1.0392 H   0  0  0  0  0  0  0  0  0  0  0  0
   -0.6337    0.1897   -2.5229 H   0  0  0  0  0  0  0  0  0  0  0  0
   -1.0004   -1.3413   -1.7733 H   0  0  0  0  0  0  0  0  0  0  0  0
   -1.6186    2.2727   -0.8527 H   0  0  0  0  0  0  0  0  0  0  0  0
   -3.9023    3.1931   -0.4319 H   0  0  0  0  0  0  0  0  0  0  0  0
   -6.8248    2.2636   -0.4226 H   0  0  0  0  0  0  0  0  0  0  0  0
   -7.8229   -0.2140   -0.9744 H   0  0  0  0  0  0  0  0  0  0  0  0
   -5.8354   -1.6833   -1.5195 H   0  0  0  0  0  0  0  0  0  0  0  0
    2.2154    2.0029    0.3538 H   0  0  0  0  0  0  0  0  0  0  0  0
    4.5005    2.3759   -0.4739 H   0  0  0  0  0  0  0  0  0  0  0  0
  1  2  1  0
  2  3  1  0
  3  4  2  0
  4  5  1  0
  5  6  1  0
  6  7  1  0
  7  8  1  0
  7  9  1  0
  7 10  1  0
 10 11  1  0
 11 12  1  0
 12 13  1  0
 13 14  2  0
 14 15  1  0
 15 16  1  0
 16 17  2  0
 17 18  1  0
 18 19  1  0
 19 20  1  0
  5 21  2  0
 21 22  1  0
 22  2  2  0
 20 12  2  0
 19 15  2  0
  1 23  1  0
  1 24  1  0
  1 25  1  0
  3 26  1  0
  4 27  1  0
  6 28  1  0
  6 29  1  0
  8 30  1  0
  8 31  1  0
  8 32  1  0
  9 33  1  0
  9 34  1  0
  9 35  1  0
 10 36  1  0
 11 37  1  0
 11 38  1  0
 13 39  1  0
 14 40  1  0
 16 41  1  0
 17 42  1  0
 18 43  1  0
 21 44  1  0
 22 45  1  0
M  END
$$$$
OCNT-2313985
     RDKit          3D

  0  0  0  0  0  0  0  0  0  0999 V3000
M  V30 BEGIN CTAB
M  V30 COUNTS 50 53 0 0 0
M  V30 BEGIN ATOM
M  V30 1 O -1.735033 -1.042663 1.464501 0
M  V30 2 C -1.414085 -0.324768 0.527978 0
M  V30 3 N -0.134926 -0.066632 0.084852 0
M  V30 4 C 1.078243 -0.500267 0.658168 0
M  V30 5 C 1.165067 -1.132997 1.891148 0
M  V30 6 C 2.410423 -1.514558 2.367123 0
M  V30 7 F 2.500762 -2.131046 3.554100 0
M  V30 8 C 3.574290 -1.273627 1.639328 0
M  V30 9 C 3.535227 -0.629464 0.397548 0
M  V30 10 N 4.684656 -0.384174 -0.333182 0
M  V30 11 C 6.019564 -0.372883 0.292610 0
M  V30 12 C 6.946791 0.603967 -0.452679 0
M  V30 13 O 7.122478 0.301732 -1.844330 0
M  V30 14 C 5.999045 -0.374681 -2.424871 0
M  V30 15 C 4.653337 -0.032359 -1.763548 0
M  V30 16 C 2.259671 -0.252111 -0.067029 0
M  V30 17 N -2.335827 0.338422 -0.262577 0
M  V30 18 C -3.769176 0.289376 0.049767 0 CFG=2
M  V30 19 C -4.333378 -1.142880 0.046832 0
M  V30 20 C -5.736647 -1.009792 -0.530965 0
M  V30 21 C -5.562590 0.029401 -1.628433 0
M  V30 22 C -4.574551 1.039361 -1.046667 0 CFG=1
M  V30 23 C -5.245543 2.203284 -0.318313 0
M  V30 24 N -4.380353 2.433572 0.837064 0
M  V30 25 C -4.096386 1.078024 1.336081 0
M  V30 26 H -0.083335 0.354805 -0.830117 0
M  V30 27 H 0.297064 -1.343975 2.504487 0
M  V30 28 H 4.506715 -1.626463 2.066511 0
M  V30 29 H 5.969900 -0.049191 1.339699 0
M  V30 30 H 6.435770 -1.386249 0.254272 0
M  V30 31 H 7.938659 0.608553 0.010620 0
M  V30 32 H 6.552562 1.626055 -0.385630 0
M  V30 33 H 6.192288 -1.452827 -2.360050 0
M  V30 34 H 5.972281 -0.112530 -3.488344 0
M  V30 35 H 4.453255 1.041573 -1.862193 0
M  V30 36 H 3.869865 -0.590232 -2.289975 0
M  V30 37 H 2.176073 0.267992 -1.017070 0
M  V30 38 H -2.023446 1.263692 -0.526739 0
M  V30 39 H -4.347315 -1.598982 1.042349 0
M  V30 40 H -3.737987 -1.793912 -0.607424 0
M  V30 41 H -6.434914 -0.649916 0.233974 0
M  V30 42 H -6.115264 -1.960294 -0.918986 0
M  V30 43 H -6.512086 0.479545 -1.932536 0
M  V30 44 H -5.121082 -0.448049 -2.512918 0
M  V30 45 H -3.927763 1.432992 -1.841070 0
M  V30 46 H -6.261728 1.954535 0.010007 0
M  V30 47 H -5.302104 3.094445 -0.951986 0
M  V30 48 H -4.869190 2.975257 1.550685 0
M  V30 49 H -3.275417 1.101317 2.058042 0
M  V30 50 H -4.983862 0.679621 1.843627 0
M  V30 END ATOM
M  V30 BEGIN BOND
M  V30 1 2 1 2
M  V30 2 1 2 3
M  V30 3 1 3 4
M  V30 4 1 4 5
M  V30 5 2 5 6
M  V30 6 1 6 7
M  V30 7 1 6 8
M  V30 8 2 8 9
M  V30 9 1 9 10
M  V30 10 1 10 11
M  V30 11 1 11 12
M  V30 12 1 12 13
M  V30 13 1 13 14
M  V30 14 1 14 15
M  V30 15 1 9 16
M  V30 16 1 2 17
M  V30 17 1 18 17 CFG=3
M  V30 18 1 18 19
M  V30 19 1 19 20
M  V30 20 1 20 21
M  V30 21 1 21 22
M  V30 22 1 22 23
M  V30 23 1 23 24
M  V30 24 1 24 25
M  V30 25 2 16 4
M  V30 26 1 22 18
M  V30 27 1 15 10
M  V30 28 1 25 18
M  V30 29 1 3 26
M  V30 30 1 5 27
M  V30 31 1 8 28
M  V30 32 1 11 29
M  V30 33 1 11 30
M  V30 34 1 12 31
M  V30 35 1 12 32
M  V30 36 1 14 33
M  V30 37 1 14 34
M  V30 38 1 15 35
M  V30 39 1 15 36
M  V30 40 1 16 37
M  V30 41 1 17 38
M  V30 42 1 19 39
M  V30 43 1 19 40
M  V30 44 1 20 41
M  V30 45 1 20 42
M  V30 46 1 21 43
M  V30 47 1 21 44
M  V30 48 1 22 45 CFG=3
M  V30 49 1 23 46
M  V30 50 1 23 47
M  V30 51 1 24 48
M  V30 52 1 25 49
M  V30 53 1 25 50
M  V30 END BOND
M  V30 BEGIN COLLECTION
M  V30 MDLV30/STERAC1 ATOMS=(2 18 22)
M  V30 END COLLECTION
M  V30 END CTAB
M  END
>  <_CXSMILES_Data>  (782) 
|&1:17,21|

$$$$
OCNT-2313994
     RDKit          3D

 45 47  0  0  0  0  0  0  0  0999 V2000
   -6.0533   -2.0760    0.9211 C   0  0  0  0  0  0  0  0  0  0  0  0
   -5.7086   -1.7219   -0.5158 C   0  0  0  0  0  0  0  0  0  0  0  0
   -4.3007   -1.8155   -0.7405 O   0  0  0  0  0  0  0  0  0  0  0  0
   -3.5828   -0.6713   -0.4476 C   0  0  0  0  0  0  0  0  0  0  0  0
   -2.2330   -0.7269   -0.6987 C   0  0  0  0  0  0  0  0  0  0  0  0
   -1.4941    0.4028   -0.4066 C   0  0  0  0  0  0  0  0  0  0  0  0
   -0.1016    0.4060   -0.6610 N   0  0  0  0  0  0  0  0  0  0  0  0
    0.4797    1.7571   -0.6025 C   0  0  0  0  0  0  0  0  0  0  0  0
    1.9308    1.7089   -1.0815 C   0  0  0  0  0  0  0  0  0  0  0  0
    2.7600    0.7108   -0.2574 C   0  0  0  0  0  0  0  0  0  0  0  0
    4.1985    0.6457   -0.7985 C   0  0  0  0  0  0  0  0  0  0  0  0
    5.1168   -0.1574    0.0574 C   0  0  0  0  0  0  0  0  0  0  0  0
    5.8115   -1.3067   -0.2544 C   0  0  0  0  0  0  0  0  0  0  0  0
    6.5050   -1.6269    0.8794 N   0  0  0  0  0  0  0  0  0  0  0  0
    6.2141   -0.6815    1.8200 C   0  0  0  0  0  0  0  0  0  0  0  0
    5.3797    0.2184    1.3545 N   0  0  0  0  0  0  0  0  0  0  0  0
    2.0731   -0.6653   -0.2775 C   0  0  0  0  0  0  0  0  0  0  0  0
    0.6154   -0.5709    0.1759 C   0  0  0  0  0  0  0  0  0  0  0  0
   -2.0929    1.5053    0.0804 N   0  0  0  0  0  0  0  0  0  0  0  0
   -3.4188    1.4596    0.3050 C   0  0  0  0  0  0  0  0  0  0  0  0
   -4.0716    2.6999    0.8284 C   0  0  0  0  0  0  0  0  0  0  0  0
   -4.2044    0.4025    0.0571 N   0  0  0  0  0  0  0  0  0  0  0  0
   -7.1374   -2.0879    1.0662 H   0  0  0  0  0  0  0  0  0  0  0  0
   -5.6171   -1.3605    1.6246 H   0  0  0  0  0  0  0  0  0  0  0  0
   -5.6523   -3.0615    1.1800 H   0  0  0  0  0  0  0  0  0  0  0  0
   -6.1752   -2.4627   -1.1753 H   0  0  0  0  0  0  0  0  0  0  0  0
   -6.1225   -0.7511   -0.8140 H   0  0  0  0  0  0  0  0  0  0  0  0
   -1.7846   -1.6107   -1.1289 H   0  0  0  0  0  0  0  0  0  0  0  0
    0.4432    2.1584    0.4192 H   0  0  0  0  0  0  0  0  0  0  0  0
   -0.0692    2.4426   -1.2609 H   0  0  0  0  0  0  0  0  0  0  0  0
    1.9540    1.4231   -2.1413 H   0  0  0  0  0  0  0  0  0  0  0  0
    2.3690    2.7114   -1.0092 H   0  0  0  0  0  0  0  0  0  0  0  0
    2.7860    1.0664    0.7822 H   0  0  0  0  0  0  0  0  0  0  0  0
    4.1965    0.2425   -1.8192 H   0  0  0  0  0  0  0  0  0  0  0  0
    4.6085    1.6615   -0.8670 H   0  0  0  0  0  0  0  0  0  0  0  0
    5.8704   -1.9010   -1.1550 H   0  0  0  0  0  0  0  0  0  0  0  0
    7.1241   -2.4157    1.0044 H   0  0  0  0  0  0  0  0  0  0  0  0
    6.6369   -0.7000    2.8156 H   0  0  0  0  0  0  0  0  0  0  0  0
    2.6012   -1.3678    0.3771 H   0  0  0  0  0  0  0  0  0  0  0  0
    2.1098   -1.0812   -1.2929 H   0  0  0  0  0  0  0  0  0  0  0  0
    0.5701   -0.2750    1.2326 H   0  0  0  0  0  0  0  0  0  0  0  0
    0.1782   -1.5729    0.0951 H   0  0  0  0  0  0  0  0  0  0  0  0
   -4.9519    2.4487    1.4280 H   0  0  0  0  0  0  0  0  0  0  0  0
   -4.3829    3.3330   -0.0075 H   0  0  0  0  0  0  0  0  0  0  0  0
   -3.3775    3.2637    1.4591 H   0  0  0  0  0  0  0  0  0  0  0  0
  1  2  1  0
  2  3  1  0
  3  4  1  0
  4  5  2  0
  5  6  1  0
  6  7  1  0
  7  8  1  0
  8  9  1  0
  9 10  1  0
 10 11  1  0
 11 12  1  0
 12 13  2  0
 13 14  1  0
 14 15  1  0
 15 16  2  0
 10 17  1  0
 17 18  1  0
  6 19  2  0
 19 20  1  0
 20 21  1  0
 20 22  2  0
 22  4  1  0
 18  7  1  0
 16 12  1  0
  1 23  1  0
  1 24  1  0
  1 25  1  0
  2 26  1  0
  2 27  1  0
  5 28  1  0
  8 29  1  0
  8 30  1  0
  9 31  1  0
  9 32  1  0
 10 33  1  0
 11 34  1  0
 11 35  1  0
 13 36  1  0
 14 37  1  0
 15 38  1  0
 17 39  1  0
 17 40  1  0
 18 41  1  0
 18 42  1  0
 21 43  1  0
 21 44  1  0
 21 45  1  0
M  END
$$$$
OCNT-2313997
     RDKit          3D

  0  0  0  0  0  0  0  0  0  0999 V3000
M  V30 BEGIN CTAB
M  V30 COUNTS 48 51 0 0 0
M  V30 BEGIN ATOM
M  V30 1 C -3.307049 -1.280544 2.281969 0
M  V30 2 C -3.005743 -1.348019 0.802372 0 CFG=2
M  V30 3 C -3.111596 -0.003505 0.087733 0
M  V30 4 C -2.079757 0.948534 0.153011 0
M  V30 5 C -2.187404 2.189789 -0.480271 0
M  V30 6 C -3.337277 2.511606 -1.193458 0
M  V30 7 C -4.380695 1.595628 -1.266315 0
M  V30 8 C -4.267961 0.357511 -0.627823 0
M  V30 9 C -3.465127 -2.588518 0.058674 0
M  V30 10 C -1.997086 -2.402049 0.347326 0 CFG=1
M  V30 11 C -1.042338 -2.150013 -0.768257 0
M  V30 12 O -1.401094 -2.262510 -1.935804 0
M  V30 13 N 0.245178 -1.813496 -0.414588 0
M  V30 14 C 0.811903 -1.744455 0.920113 0
M  V30 15 C 2.316667 -1.654851 0.691481 0
M  V30 16 C 2.435297 -0.916327 -0.645554 0 CFG=2
M  V30 17 N 2.301243 0.534385 -0.425782 0
M  V30 18 C 3.421963 1.355579 -0.233261 0
M  V30 19 C 4.661063 0.840045 0.171878 0
M  V30 20 C 5.725016 1.699193 0.417933 0
M  V30 21 N 5.646131 3.038219 0.312579 0
M  V30 22 C 4.442018 3.537410 -0.040334 0
M  V30 23 C 3.319420 2.758231 -0.306658 0
M  V30 24 C 2.105436 3.426622 -0.654437 0
M  V30 25 N 1.125985 3.976421 -0.947371 0
M  V30 26 C 1.235446 -1.487389 -1.425443 0
M  V30 27 H -2.581282 -0.638819 2.792827 0
M  V30 28 H -4.309813 -0.874207 2.452413 0
M  V30 29 H -3.264602 -2.268958 2.752788 0
M  V30 30 H -1.175045 0.726709 0.711301 0
M  V30 31 H -1.373820 2.907294 -0.414457 0
M  V30 32 H -3.418245 3.475365 -1.688594 0
M  V30 33 H -5.283355 1.840602 -1.819102 0
M  V30 34 H -5.099332 -0.340993 -0.692276 0
M  V30 35 H -3.789712 -2.503285 -0.973871 0
M  V30 36 H -3.995343 -3.359044 0.606663 0
M  V30 37 H -1.609758 -3.082484 1.099076 0
M  V30 38 H 0.424895 -0.848017 1.413880 0
M  V30 39 H 0.539708 -2.622115 1.512085 0
M  V30 40 H 2.729896 -2.665594 0.583763 0
M  V30 41 H 2.826144 -1.168063 1.528036 0
M  V30 42 H 3.360181 -1.145295 -1.185768 0
M  V30 43 H 1.556650 0.955977 -0.983815 0
M  V30 44 H 4.826126 -0.221952 0.309366 0
M  V30 45 H 6.694419 1.313770 0.722875 0
M  V30 46 H 4.404565 4.623331 -0.100055 0
M  V30 47 H 1.507937 -2.423557 -1.926602 0
M  V30 48 H 0.820148 -0.798165 -2.167822 0
M  V30 END ATOM
M  V30 BEGIN BOND
M  V30 1 1 2 1 CFG=1
M  V30 2 1 2 3
M  V30 3 2 3 4
M  V30 4 1 4 5
M  V30 5 2 5 6
M  V30 6 1 6 7
M  V30 7 2 7 8
M  V30 8 1 2 9
M  V30 9 1 9 10
M  V30 10 1 10 11
M  V30 11 2 11 12
M  V30 12 1 11 13
M  V30 13 1 13 14
M  V30 14 1 14 15
M  V30 15 1 15 16
M  V30 16 1 16 17
M  V30 17 1 17 18
M  V30 18 2 18 19
M  V30 19 1 19 20
M  V30 20 2 20 21
M  V30 21 1 21 22
M  V30 22 2 22 23
M  V30 23 1 23 24
M  V30 24 3 24 25
M  V30 25 1 16 26
M  V30 26 1 10 2
M  V30 27 1 26 13
M  V30 28 1 8 3
M  V30 29 1 23 18
M  V30 30 1 1 27
M  V30 31 1 1 28
M  V30 32 1 1 29
M  V30 33 1 4 30
M  V30 34 1 5 31
M  V30 35 1 6 32
M  V30 36 1 7 33
M  V30 37 1 8 34
M  V30 38 1 9 35
M  V30 39 1 9 36
M  V30 40 1 10 37 CFG=1
M  V30 41 1 14 38
M  V30 42 1 14 39
M  V30 43 1 15 40
M  V30 44 1 15 41
M  V30 45 1 16 42 CFG=3
M  V30 46 1 17 43
M  V30 47 1 19 44
M  V30 48 1 20 45
M  V30 49 1 22 46
M  V30 50 1 26 47
M  V30 51 1 26 48
M  V30 END BOND
M  V30 BEGIN COLLECTION
M  V30 MDLV30/STEABS ATOMS=(1 16)
M  V30 MDLV30/STERAC1 ATOMS=(2 2 10)
M  V30 END COLLECTION
M  V30 END CTAB
M  END
>  <_CXSMILES_Data>  (784) 
|a:15,&1:1,9|

$$$$
OCNT-2314003
     RDKit          3D

 33 35  0  0  0  0  0  0  0  0999 V2000
   -0.7148   -0.2107   -2.2026 C   0  0  0  0  0  0  0  0  0  0  0  0
   -0.6556   -0.8956   -0.9196 N   0  0  0  0  0  0  0  0  0  0  0  0
   -1.8622   -1.5951   -0.4911 C   0  0  0  0  0  0  0  0  0  0  0  0
   -2.9354   -0.6472   -0.0150 C   0  0  0  0  0  0  0  0  0  0  0  0
   -4.0137   -0.3069   -0.8369 C   0  0  0  0  0  0  0  0  0  0  0  0
   -4.9636    0.5800   -0.3536 C   0  0  0  0  0  0  0  0  0  0  0  0
   -4.9122    1.1440    0.8713 N   0  0  0  0  0  0  0  0  0  0  0  0
   -3.8604    0.8075    1.6481 C   0  0  0  0  0  0  0  0  0  0  0  0
   -2.8617   -0.0694    1.2562 C   0  0  0  0  0  0  0  0  0  0  0  0
    0.3887   -0.7570    0.0088 C   0  0  0  0  0  0  0  0  0  0  0  0
    0.3788   -1.4078    1.0576 O   0  0  0  0  0  0  0  0  0  0  0  0
    1.5161    0.1707   -0.2555 C   0  0  0  0  0  0  0  0  0  0  0  0
    1.4669    1.2053   -1.1244 N   0  0  0  0  0  0  0  0  0  0  0  0
    2.6721    1.7942   -1.0114 N   0  0  0  0  0  0  0  0  0  0  0  0
    3.4987    1.1990   -0.1105 C   0  0  0  0  0  0  0  0  0  0  0  0
    4.7519    1.5859    0.1943 N   0  0  0  0  0  0  0  0  0  0  0  0
    5.3203    0.7987    1.1432 C   0  0  0  0  0  0  0  0  0  0  0  0
    4.7150   -0.2930    1.7569 C   0  0  0  0  0  0  0  0  0  0  0  0
    5.6419   -1.2900    3.0642 Br  0  0  0  0  0  0  0  0  0  0  0  0
    3.4147   -0.6478    1.3982 C   0  0  0  0  0  0  0  0  0  0  0  0
    2.7821    0.1373    0.4171 C   0  0  0  0  0  0  0  0  0  0  0  0
   -1.4284   -0.7150   -2.8616 H   0  0  0  0  0  0  0  0  0  0  0  0
   -1.0380    0.8223   -2.0467 H   0  0  0  0  0  0  0  0  0  0  0  0
    0.2584   -0.2406   -2.6981 H   0  0  0  0  0  0  0  0  0  0  0  0
   -2.2251   -2.2025   -1.3294 H   0  0  0  0  0  0  0  0  0  0  0  0
   -1.6389   -2.3077    0.3117 H   0  0  0  0  0  0  0  0  0  0  0  0
   -4.1182   -0.7190   -1.8346 H   0  0  0  0  0  0  0  0  0  0  0  0
   -5.8175    0.8698   -0.9593 H   0  0  0  0  0  0  0  0  0  0  0  0
   -3.8386    1.2766    2.6275 H   0  0  0  0  0  0  0  0  0  0  0  0
   -2.0415   -0.2959    1.9309 H   0  0  0  0  0  0  0  0  0  0  0  0
    2.8804    2.6105   -1.5730 H   0  0  0  0  0  0  0  0  0  0  0  0
    6.3341    1.0902    1.4100 H   0  0  0  0  0  0  0  0  0  0  0  0
    2.9056   -1.4909    1.8550 H   0  0  0  0  0  0  0  0  0  0  0  0
  1  2  1  0
  2  3  1  0
  3  4  1  0
  4  5  2  0
  5  6  1  0
  6  7  2  0
  7  8  1  0
  8  9  2  0
  2 10  1  0
 10 11  2  0
 10 12  1  0
 12 13  2  0
 13 14  1  0
 14 15  1  0
 15 16  1  0
 16 17  2  0
 17 18  1  0
 18 19  1  0
 18 20  2  0
 20 21  1  0
  9  4  1  0
 21 12  1  0
 21 15  2  0
  1 22  1  0
  1 23  1  0
  1 24  1  0
  3 25  1  0
  3 26  1  0
  5 27  1  0
  6 28  1  0
  8 29  1  0
  9 30  1  0
 14 31  1  0
 17 32  1  0
 20 33  1  0
M  END
$$$$
OCNT-2314020
     RDKit          3D

 49 51  0  0  0  0  0  0  0  0999 V2000
   -5.3505    1.2536   -0.7825 C   0  0  0  0  0  0  0  0  0  0  0  0
   -4.6829   -0.1128   -0.5404 C   0  0  0  0  0  0  0  0  0  0  0  0
   -4.9523   -1.0018   -1.7758 C   0  0  0  0  0  0  0  0  0  0  0  0
   -5.3383   -0.7951    0.6763 C   0  0  0  0  0  0  0  0  0  0  0  0
   -3.1373    0.0484   -0.3593 C   0  0  0  0  0  0  0  0  0  0  0  0
   -2.7222    1.0039    0.7825 C   0  0  0  0  0  0  0  0  0  0  0  0
   -1.5925    0.4999    1.6830 C   0  0  0  0  0  0  0  0  0  0  0  0
   -0.2948    0.3300    1.0293 N   0  0  0  0  0  0  0  0  0  0  0  0
    0.8165    0.2435    1.8754 C   0  0  0  0  0  0  0  0  0  0  0  0
    0.7367    0.2342    3.1018 O   0  0  0  0  0  0  0  0  0  0  0  0
    2.1720    0.1952    1.2823 C   0  0  0  0  0  0  0  0  0  0  0  0
    3.0612   -0.7946    1.7037 C   0  0  0  0  0  0  0  0  0  0  0  0
    4.3534   -0.8411    1.1712 C   0  0  0  0  0  0  0  0  0  0  0  0
    4.7745    0.1071    0.2257 C   0  0  0  0  0  0  0  0  0  0  0  0
    6.1231    0.0465   -0.3158 C   0  0  0  0  0  0  0  0  0  0  0  0
    6.5179    0.5435   -1.5409 C   0  0  0  0  0  0  0  0  0  0  0  0
    7.8497    0.2667   -1.6607 N   0  0  0  0  0  0  0  0  0  0  0  0
    8.3571   -0.3853   -0.6038 N   0  0  0  0  0  0  0  0  0  0  0  0
    7.3094   -0.5168    0.2140 C   0  0  0  0  0  0  0  0  0  0  0  0
    3.8776    1.1135   -0.1664 C   0  0  0  0  0  0  0  0  0  0  0  0
    2.5839    1.1638    0.3628 C   0  0  0  0  0  0  0  0  0  0  0  0
   -0.2879   -0.1637   -0.3531 C   0  0  0  0  0  0  0  0  0  0  0  0
   -1.2027   -1.3785   -0.5850 C   0  0  0  0  0  0  0  0  0  0  0  0
   -2.5610   -1.2436   -0.1550 O   0  0  0  0  0  0  0  0  0  0  0  0
   -4.8908    1.7708   -1.6320 H   0  0  0  0  0  0  0  0  0  0  0  0
   -5.2730    1.9089    0.0907 H   0  0  0  0  0  0  0  0  0  0  0  0
   -6.4177    1.1372   -1.0038 H   0  0  0  0  0  0  0  0  0  0  0  0
   -4.5419   -2.0094   -1.6465 H   0  0  0  0  0  0  0  0  0  0  0  0
   -4.5032   -0.5704   -2.6772 H   0  0  0  0  0  0  0  0  0  0  0  0
   -6.0275   -1.1077   -1.9604 H   0  0  0  0  0  0  0  0  0  0  0  0
   -4.9025   -1.7815    0.8670 H   0  0  0  0  0  0  0  0  0  0  0  0
   -6.4125   -0.9391    0.5113 H   0  0  0  0  0  0  0  0  0  0  0  0
   -5.2312   -0.2011    1.5885 H   0  0  0  0  0  0  0  0  0  0  0  0
   -2.7575    0.4539   -1.3076 H   0  0  0  0  0  0  0  0  0  0  0  0
   -2.4466    1.9721    0.3449 H   0  0  0  0  0  0  0  0  0  0  0  0
   -3.5741    1.2178    1.4355 H   0  0  0  0  0  0  0  0  0  0  0  0
   -1.4643    1.2157    2.5051 H   0  0  0  0  0  0  0  0  0  0  0  0
   -1.8632   -0.4555    2.1502 H   0  0  0  0  0  0  0  0  0  0  0  0
    2.7506   -1.5265    2.4462 H   0  0  0  0  0  0  0  0  0  0  0  0
    5.0215   -1.6317    1.5051 H   0  0  0  0  0  0  0  0  0  0  0  0
    5.9870    1.0522   -2.3323 H   0  0  0  0  0  0  0  0  0  0  0  0
    8.4704    0.4874   -2.4328 H   0  0  0  0  0  0  0  0  0  0  0  0
    7.4545   -1.0139    1.1646 H   0  0  0  0  0  0  0  0  0  0  0  0
    4.1803    1.8840   -0.8712 H   0  0  0  0  0  0  0  0  0  0  0  0
    1.9093    1.9634    0.0684 H   0  0  0  0  0  0  0  0  0  0  0  0
   -0.5869    0.6783   -0.9860 H   0  0  0  0  0  0  0  0  0  0  0  0
    0.7178   -0.4494   -0.6693 H   0  0  0  0  0  0  0  0  0  0  0  0
   -0.7950   -2.2489   -0.0594 H   0  0  0  0  0  0  0  0  0  0  0  0
   -1.2139   -1.6232   -1.6531 H   0  0  0  0  0  0  0  0  0  0  0  0
  1  2  1  0
  2  3  1  0
  2  4  1  0
  2  5  1  0
  5  6  1  0
  6  7  1  0
  7  8  1  0
  8  9  1  0
  9 10  2  0
  9 11  1  0
 11 12  1  0
 12 13  2  0
 13 14  1  0
 14 15  1  0
 15 16  2  0
 16 17  1  0
 17 18  1  0
 18 19  2  0
 14 20  2  0
 20 21  1  0
  8 22  1  0
 22 23  1  0
 23 24  1  0
 24  5  1  0
 21 11  2  0
 19 15  1  0
  1 25  1  0
  1 26  1  0
  1 27  1  0
  3 28  1  0
  3 29  1  0
  3 30  1  0
  4 31  1  0
  4 32  1  0
  4 33  1  0
  5 34  1  0
  6 35  1  0
  6 36  1  0
  7 37  1  0
  7 38  1  0
 12 39  1  0
 13 40  1  0
 16 41  1  0
 17 42  1  0
 19 43  1  0
 20 44  1  0
 21 45  1  0
 22 46  1  0
 22 47  1  0
 23 48  1  0
 23 49  1  0
M  END
$$$$
OCNT-2314025
     RDKit          3D

 50 53  0  0  0  0  0  0  0  0999 V2000
   -4.0648   -1.8093    0.3180 C   0  0  0  0  0  0  0  0  0  0  0  0
   -3.3505   -0.5865    0.0346 N   0  0  0  0  0  0  0  0  0  0  0  0
   -3.7873    0.4114   -0.8093 C   0  0  0  0  0  0  0  0  0  0  0  0
   -4.8963    0.5319   -1.6660 C   0  0  0  0  0  0  0  0  0  0  0  0
   -5.0181    1.7249   -2.3966 C   0  0  0  0  0  0  0  0  0  0  0  0
   -4.0812    2.7534   -2.2671 C   0  0  0  0  0  0  0  0  0  0  0  0
   -2.9913    2.6105   -1.4010 C   0  0  0  0  0  0  0  0  0  0  0  0
   -2.1028    3.6130   -1.3022 F   0  0  0  0  0  0  0  0  0  0  0  0
   -2.8356    1.4212   -0.6627 C   0  0  0  0  0  0  0  0  0  0  0  0
   -1.8551    1.0405    0.2284 N   0  0  0  0  0  0  0  0  0  0  0  0
   -2.1537   -0.1879    0.5947 C   0  0  0  0  0  0  0  0  0  0  0  0
   -1.4489   -0.9930    1.4404 N   0  0  0  0  0  0  0  0  0  0  0  0
   -0.6499   -0.2836    2.4560 C   0  0  0  0  0  0  0  0  0  0  0  0
    0.4357   -1.1701    3.0541 C   0  0  0  0  0  0  0  0  0  0  0  0
    1.3586   -1.7708    1.9861 C   0  0  0  0  0  0  0  0  0  0  0  0
    2.6219   -0.9358    1.7864 C   0  0  0  0  0  0  0  0  0  0  0  0
    3.7306   -1.3901    2.0671 O   0  0  0  0  0  0  0  0  0  0  0  0
    2.4306    0.3323    1.2890 N   0  0  0  0  0  0  0  0  0  0  0  0
    3.5469    1.1564    0.8751 C   0  0  0  0  0  0  0  0  0  0  0  0
    3.7675    1.0349   -0.6152 C   0  0  0  0  0  0  0  0  0  0  0  0
    4.5326   -0.0263   -1.1290 C   0  0  0  0  0  0  0  0  0  0  0  0
    4.7125   -0.1654   -2.5048 C   0  0  0  0  0  0  0  0  0  0  0  0
    4.1228    0.7564   -3.3708 C   0  0  0  0  0  0  0  0  0  0  0  0
    4.2847    0.6203   -4.6937 F   0  0  0  0  0  0  0  0  0  0  0  0
    3.3591    1.8119   -2.8829 C   0  0  0  0  0  0  0  0  0  0  0  0
    3.1738    1.9481   -1.5063 C   0  0  0  0  0  0  0  0  0  0  0  0
    0.6490   -2.0293    0.6521 C   0  0  0  0  0  0  0  0  0  0  0  0
   -0.8485   -2.2047    0.8516 C   0  0  0  0  0  0  0  0  0  0  0  0
   -3.7807   -2.1923    1.3045 H   0  0  0  0  0  0  0  0  0  0  0  0
   -3.8179   -2.5370   -0.4590 H   0  0  0  0  0  0  0  0  0  0  0  0
   -5.1416   -1.6097    0.3197 H   0  0  0  0  0  0  0  0  0  0  0  0
   -5.6264   -0.2662   -1.7710 H   0  0  0  0  0  0  0  0  0  0  0  0
   -5.8572    1.8531   -3.0826 H   0  0  0  0  0  0  0  0  0  0  0  0
   -4.1822    3.6727   -2.8407 H   0  0  0  0  0  0  0  0  0  0  0  0
   -0.1877    0.6227    2.0456 H   0  0  0  0  0  0  0  0  0  0  0  0
   -1.3230    0.0464    3.2584 H   0  0  0  0  0  0  0  0  0  0  0  0
   -0.0471   -1.9880    3.6032 H   0  0  0  0  0  0  0  0  0  0  0  0
    1.0108   -0.6010    3.7933 H   0  0  0  0  0  0  0  0  0  0  0  0
    1.7024   -2.7412    2.3785 H   0  0  0  0  0  0  0  0  0  0  0  0
    1.5368    0.5682    0.8798 H   0  0  0  0  0  0  0  0  0  0  0  0
    4.4594    0.8846    1.4230 H   0  0  0  0  0  0  0  0  0  0  0  0
    3.3049    2.1915    1.1391 H   0  0  0  0  0  0  0  0  0  0  0  0
    4.9855   -0.7514   -0.4517 H   0  0  0  0  0  0  0  0  0  0  0  0
    5.3040   -0.9838   -2.9076 H   0  0  0  0  0  0  0  0  0  0  0  0
    2.9134    2.5194   -3.5771 H   0  0  0  0  0  0  0  0  0  0  0  0
    2.5620    2.7680   -1.1330 H   0  0  0  0  0  0  0  0  0  0  0  0
    1.0688   -2.9331    0.1916 H   0  0  0  0  0  0  0  0  0  0  0  0
    0.8239   -1.2227   -0.0691 H   0  0  0  0  0  0  0  0  0  0  0  0
   -1.3015   -2.4535   -0.1195 H   0  0  0  0  0  0  0  0  0  0  0  0
   -1.0487   -3.0609    1.5120 H   0  0  0  0  0  0  0  0  0  0  0  0
  1  2  1  0
  2  3  1  0
  3  4  2  0
  4  5  1  0
  5  6  2  0
  6  7  1  0
  7  8  1  0
  7  9  2  0
  9 10  1  0
 10 11  2  0
 11 12  1  0
 12 13  1  0
 13 14  1  0
 14 15  1  0
 15 16  1  0
 16 17  2  0
 16 18  1  0
 18 19  1  0
 19 20  1  0
 20 21  1  0
 21 22  2  0
 22 23  1  0
 23 24  1  0
 23 25  2  0
 25 26  1  0
 15 27  1  0
 27 28  1  0
 11  2  1  0
 28 12  1  0
  9  3  1  0
 26 20  2  0
  1 29  1  0
  1 30  1  0
  1 31  1  0
  4 32  1  0
  5 33  1  0
  6 34  1  0
 13 35  1  0
 13 36  1  0
 14 37  1  0
 14 38  1  0
 15 39  1  0
 18 40  1  0
 19 41  1  0
 19 42  1  0
 21 43  1  0
 22 44  1  0
 25 45  1  0
 26 46  1  0
 27 47  1  0
 27 48  1  0
 28 49  1  0
 28 50  1  0
M  END
$$$$
OCNT-2314028
     RDKit          3D

 52 56  0  0  0  0  0  0  0  0999 V2000
    0.3806   -0.0162   -3.8969 O   0  0  0  0  0  0  0  0  0  0  0  0
    0.3898   -0.1729   -2.6787 C   0  0  0  0  0  0  0  0  0  0  0  0
    1.7012   -0.3078   -2.0353 C   0  0  0  0  0  0  0  0  0  0  0  0
    2.1453   -1.5226   -1.5272 C   0  0  0  0  0  0  0  0  0  0  0  0
    3.4094   -1.5766   -0.9417 C   0  0  0  0  0  0  0  0  0  0  0  0
    4.2025   -0.4273   -0.8929 C   0  0  0  0  0  0  0  0  0  0  0  0
    5.4525   -0.5216   -0.2601 N   0  0  0  0  0  0  0  0  0  0  0  0
    6.2380    0.7047   -0.2968 C   0  0  0  0  0  0  0  0  0  0  0  0
    7.5580    0.4341    0.3683 C   0  0  0  0  0  0  0  0  0  0  0  0
    8.2593    1.5159    1.1515 C   0  0  0  0  0  0  0  0  0  0  0  0
    7.6551    0.3413    1.8707 C   0  0  0  0  0  0  0  0  0  0  0  0
    3.7716    0.7502   -1.3939 N   0  0  0  0  0  0  0  0  0  0  0  0
    2.5441    0.7861   -1.9704 C   0  0  0  0  0  0  0  0  0  0  0  0
   -0.7603   -0.2277   -1.8934 N   0  0  0  0  0  0  0  0  0  0  0  0
   -2.0263   -0.3467   -2.6085 C   0  0  0  0  0  0  0  0  0  0  0  0
   -3.2102   -0.0218   -1.7510 C   0  0  0  0  0  0  0  0  0  0  0  0
   -3.1540    0.2991   -0.4471 C   0  0  0  0  0  0  0  0  0  0  0  0
   -4.2970    0.6155    0.3514 C   0  0  0  0  0  0  0  0  0  0  0  0
   -4.3991    1.7310    1.1548 C   0  0  0  0  0  0  0  0  0  0  0  0
   -5.6312    1.7116    1.7523 N   0  0  0  0  0  0  0  0  0  0  0  0
   -6.3332    0.5942    1.3610 C   0  0  0  0  0  0  0  0  0  0  0  0
   -7.6164    0.1651    1.7212 C   0  0  0  0  0  0  0  0  0  0  0  0
   -8.0700   -1.0282    1.1619 C   0  0  0  0  0  0  0  0  0  0  0  0
   -9.2926   -1.4723    1.4847 F   0  0  0  0  0  0  0  0  0  0  0  0
   -7.2913   -1.7709    0.2853 C   0  0  0  0  0  0  0  0  0  0  0  0
   -6.0106   -1.3281   -0.0647 C   0  0  0  0  0  0  0  0  0  0  0  0
   -5.5178   -0.1189    0.4764 C   0  0  0  0  0  0  0  0  0  0  0  0
   -1.8342    0.3266    0.2756 C   0  0  0  0  0  0  0  0  0  0  0  0
   -0.7769   -0.5036   -0.4539 C   0  0  0  0  0  0  0  0  0  0  0  0
    1.5254   -2.4117   -1.5836 H   0  0  0  0  0  0  0  0  0  0  0  0
    3.7722   -2.5083   -0.5188 H   0  0  0  0  0  0  0  0  0  0  0  0
    5.9646   -1.3052   -0.6518 H   0  0  0  0  0  0  0  0  0  0  0  0
    5.7111    1.5136    0.2245 H   0  0  0  0  0  0  0  0  0  0  0  0
    6.4286    1.0205   -1.3298 H   0  0  0  0  0  0  0  0  0  0  0  0
    8.1782   -0.2324   -0.2202 H   0  0  0  0  0  0  0  0  0  0  0  0
    7.7744    2.4793    1.2625 H   0  0  0  0  0  0  0  0  0  0  0  0
    9.3404    1.5689    1.0863 H   0  0  0  0  0  0  0  0  0  0  0  0
    8.3239   -0.4013    2.2900 H   0  0  0  0  0  0  0  0  0  0  0  0
    6.7554    0.5071    2.4537 H   0  0  0  0  0  0  0  0  0  0  0  0
    2.2528    1.7488   -2.3809 H   0  0  0  0  0  0  0  0  0  0  0  0
   -2.0170    0.3129   -3.4829 H   0  0  0  0  0  0  0  0  0  0  0  0
   -2.1073   -1.3790   -2.9675 H   0  0  0  0  0  0  0  0  0  0  0  0
   -4.1701   -0.0309   -2.2621 H   0  0  0  0  0  0  0  0  0  0  0  0
   -3.7113    2.5445    1.3440 H   0  0  0  0  0  0  0  0  0  0  0  0
   -5.9801    2.4145    2.3897 H   0  0  0  0  0  0  0  0  0  0  0  0
   -8.2423    0.7248    2.4062 H   0  0  0  0  0  0  0  0  0  0  0  0
   -7.6824   -2.6970   -0.1237 H   0  0  0  0  0  0  0  0  0  0  0  0
   -5.4013   -1.9150   -0.7455 H   0  0  0  0  0  0  0  0  0  0  0  0
   -1.9303   -0.0604    1.2973 H   0  0  0  0  0  0  0  0  0  0  0  0
   -1.4913    1.3669    0.3474 H   0  0  0  0  0  0  0  0  0  0  0  0
   -0.9753   -1.5761   -0.3334 H   0  0  0  0  0  0  0  0  0  0  0  0
    0.1956   -0.2970    0.0004 H   0  0  0  0  0  0  0  0  0  0  0  0
  1  2  2  0
  2  3  1  0
  3  4  2  0
  4  5  1  0
  5  6  2  0
  6  7  1  0
  7  8  1  0
  8  9  1  0
  9 10  1  0
 10 11  1  0
  6 12  1  0
 12 13  2  0
  2 14  1  0
 14 15  1  0
 15 16  1  0
 16 17  2  0
 17 18  1  0
 18 19  2  0
 19 20  1  0
 20 21  1  0
 21 22  2  0
 22 23  1  0
 23 24  1  0
 23 25  2  0
 25 26  1  0
 26 27  2  0
 17 28  1  0
 28 29  1  0
 13  3  1  0
 29 14  1  0
 11  9  1  0
 27 18  1  0
 27 21  1  0
  4 30  1  0
  5 31  1  0
  7 32  1  0
  8 33  1  0
  8 34  1  0
  9 35  1  0
 10 36  1  0
 10 37  1  0
 11 38  1  0
 11 39  1  0
 13 40  1  0
 15 41  1  0
 15 42  1  0
 16 43  1  0
 19 44  1  0
 20 45  1  0
 22 46  1  0
 25 47  1  0
 26 48  1  0
 28 49  1  0
 28 50  1  0
 29 51  1  0
 29 52  1  0
M  END
$$$$
OCNT-2314054
     RDKit          3D

 40 43  0  0  0  0  0  0  0  0999 V2000
   -2.5891   -0.1338    2.1123 C   0  0  0  0  0  0  0  0  0  0  0  0
   -2.3343   -0.7631    0.7435 C   0  0  2  0  0  0  0  0  0  0  0  0
   -1.1112   -0.2181    0.1550 N   0  0  0  0  0  0  0  0  0  0  0  0
    0.2191   -0.4597    0.4917 C   0  0  0  0  0  0  0  0  0  0  0  0
    1.2018    0.3197   -0.0004 C   0  0  0  0  0  0  0  0  0  0  0  0
    2.6100    0.0019    0.3974 C   0  0  0  0  0  0  0  0  0  0  0  0
    3.6742    0.8940   -0.1490 C   0  0  0  0  0  0  0  0  0  0  0  0
    4.9190    0.3342   -0.4657 C   0  0  0  0  0  0  0  0  0  0  0  0
    5.9413    1.1358   -0.9765 C   0  0  0  0  0  0  0  0  0  0  0  0
    5.7292    2.5006   -1.1637 C   0  0  0  0  0  0  0  0  0  0  0  0
    4.4988    3.0679   -0.8333 C   0  0  0  0  0  0  0  0  0  0  0  0
    3.4723    2.2693   -0.3222 C   0  0  0  0  0  0  0  0  0  0  0  0
    2.9574   -0.9954    1.1566 N   0  0  0  0  0  0  0  0  0  0  0  0
    1.9528   -1.7795    1.6387 C   0  0  0  0  0  0  0  0  0  0  0  0
    2.0428   -2.8327    2.4222 N   0  0  0  0  0  0  0  0  0  0  0  0
    0.7528   -3.2172    2.5856 C   0  0  0  0  0  0  0  0  0  0  0  0
   -0.1629   -2.4818    1.9602 N   0  0  0  0  0  0  0  0  0  0  0  0
    0.6020   -1.5373    1.3348 N   0  0  0  0  0  0  0  0  0  0  0  0
   -3.5076   -0.4305   -0.1844 C   0  0  0  0  0  0  0  0  0  0  0  0
   -4.5594   -1.3361   -0.3353 C   0  0  0  0  0  0  0  0  0  0  0  0
   -5.6234   -1.0046   -1.1740 C   0  0  0  0  0  0  0  0  0  0  0  0
   -5.6124    0.2172   -1.8346 C   0  0  0  0  0  0  0  0  0  0  0  0
   -6.9032    0.6612   -2.8741 Cl  0  0  0  0  0  0  0  0  0  0  0  0
   -4.5364    1.0663   -1.6318 C   0  0  0  0  0  0  0  0  0  0  0  0
   -3.4864    0.7765   -0.8240 N   0  0  0  0  0  0  0  0  0  0  0  0
   -2.6813    0.9568    2.0423 H   0  0  0  0  0  0  0  0  0  0  0  0
   -1.7740   -0.3451    2.8113 H   0  0  0  0  0  0  0  0  0  0  0  0
   -3.5155   -0.5168    2.5545 H   0  0  0  0  0  0  0  0  0  0  0  0
   -2.2657   -1.8525    0.8177 H   0  0  0  0  0  0  0  0  0  0  0  0
   -1.3025    0.6236   -0.3909 H   0  0  0  0  0  0  0  0  0  0  0  0
    1.0006    1.1336   -0.6829 H   0  0  0  0  0  0  0  0  0  0  0  0
    5.0982   -0.7290   -0.3167 H   0  0  0  0  0  0  0  0  0  0  0  0
    6.9040    0.6945   -1.2226 H   0  0  0  0  0  0  0  0  0  0  0  0
    6.5279    3.1247   -1.5575 H   0  0  0  0  0  0  0  0  0  0  0  0
    4.3430    4.1361   -0.9644 H   0  0  0  0  0  0  0  0  0  0  0  0
    2.5366    2.7441   -0.0418 H   0  0  0  0  0  0  0  0  0  0  0  0
    0.4667   -4.0709    3.1869 H   0  0  0  0  0  0  0  0  0  0  0  0
   -4.5541   -2.2880    0.1876 H   0  0  0  0  0  0  0  0  0  0  0  0
   -6.4485   -1.6987   -1.3055 H   0  0  0  0  0  0  0  0  0  0  0  0
   -4.4827    2.0328   -2.1245 H   0  0  0  0  0  0  0  0  0  0  0  0
  1  2  1  0
  2  3  1  0
  3  4  1  0
  4  5  2  0
  5  6  1  0
  6  7  1  0
  7  8  2  0
  8  9  1  0
  9 10  2  0
 10 11  1  0
 11 12  2  0
  6 13  2  0
 13 14  1  0
 14 15  2  0
 15 16  1  0
 16 17  2  0
 17 18  1  0
  2 19  1  0
 19 20  2  0
 20 21  1  0
 21 22  2  0
 22 23  1  0
 22 24  1  0
 24 25  2  0
 18  4  1  0
 25 19  1  0
 12  7  1  0
 18 14  1  0
  1 26  1  0
  1 27  1  0
  1 28  1  0
  2 29  1  1
  3 30  1  0
  5 31  1  0
  8 32  1  0
  9 33  1  0
 10 34  1  0
 11 35  1  0
 12 36  1  0
 16 37  1  0
 20 38  1  0
 21 39  1  0
 24 40  1  0
M  END
$$$$
OCNT-2314062
     RDKit          3D

 41 44  0  0  0  0  0  0  0  0999 V2000
   -6.9922    2.7653   -1.7321 C   0  0  0  0  0  0  0  0  0  0  0  0
   -6.4933    1.7720   -1.2764 C   0  0  0  0  0  0  0  0  0  0  0  0
   -5.8831    0.5604   -0.7158 C   0  0  0  0  0  0  0  0  0  0  0  0
   -5.5532    0.7993    0.6778 N   0  0  0  0  0  0  0  0  0  0  0  0
   -5.1215   -0.4849    1.6488 S   0  0  0  0  0  0  0  0  0  0  0  0
   -4.7256    0.0680    2.9240 O   0  0  0  0  0  0  0  0  0  0  0  0
   -6.1445   -1.4996    1.5359 O   0  0  0  0  0  0  0  0  0  0  0  0
   -3.6517   -1.0942    0.8566 C   0  0  0  0  0  0  0  0  0  0  0  0
   -3.7003   -2.2727    0.1089 C   0  0  0  0  0  0  0  0  0  0  0  0
   -2.5388   -2.7417   -0.4990 C   0  0  0  0  0  0  0  0  0  0  0  0
   -1.3393   -2.0383   -0.3506 C   0  0  0  0  0  0  0  0  0  0  0  0
   -1.2763   -0.8592    0.4119 C   0  0  0  0  0  0  0  0  0  0  0  0
   -0.0030   -0.1602    0.5448 C   0  0  0  0  0  0  0  0  0  0  0  0
    1.1741   -0.4556    0.0415 N   0  0  0  0  0  0  0  0  0  0  0  0
    1.9712    0.5714    0.5049 C   0  0  0  0  0  0  0  0  0  0  0  0
    3.3946    0.6561    0.1895 C   0  0  0  0  0  0  0  0  0  0  0  0
    4.1790    1.7109    0.6785 C   0  0  0  0  0  0  0  0  0  0  0  0
    5.5457    1.8095    0.3867 C   0  0  0  0  0  0  0  0  0  0  0  0
    6.1077    0.8123   -0.4158 C   0  0  0  0  0  0  0  0  0  0  0  0
    7.4017    0.6512   -0.8585 N   0  0  0  0  0  0  0  0  0  0  0  0
    7.5013   -0.4781   -1.6273 C   0  0  0  0  0  0  0  0  0  0  0  0
    6.2553   -1.0594   -1.6847 C   0  0  0  0  0  0  0  0  0  0  0  0
    5.3654   -0.2532   -0.9227 C   0  0  0  0  0  0  0  0  0  0  0  0
    3.9921   -0.3313   -0.6155 C   0  0  0  0  0  0  0  0  0  0  0  0
    1.3127    1.4692    1.2578 N   0  0  0  0  0  0  0  0  0  0  0  0
    0.0077    0.9853    1.2864 O   0  0  0  0  0  0  0  0  0  0  0  0
   -2.4497   -0.3934    1.0219 C   0  0  0  0  0  0  0  0  0  0  0  0
   -7.4409    3.6456   -2.1321 H   0  0  0  0  0  0  0  0  0  0  0  0
   -6.5759   -0.2809   -0.8136 H   0  0  0  0  0  0  0  0  0  0  0  0
   -4.9728    0.3299   -1.2782 H   0  0  0  0  0  0  0  0  0  0  0  0
   -5.1716    1.7031    0.9457 H   0  0  0  0  0  0  0  0  0  0  0  0
   -4.6286   -2.8302    0.0004 H   0  0  0  0  0  0  0  0  0  0  0  0
   -2.5606   -3.6589   -1.0839 H   0  0  0  0  0  0  0  0  0  0  0  0
   -0.4399   -2.4232   -0.8319 H   0  0  0  0  0  0  0  0  0  0  0  0
    3.7303    2.4820    1.3036 H   0  0  0  0  0  0  0  0  0  0  0  0
    6.1384    2.6320    0.7738 H   0  0  0  0  0  0  0  0  0  0  0  0
    8.1636    1.2793   -0.6431 H   0  0  0  0  0  0  0  0  0  0  0  0
    8.4465   -0.7697   -2.0650 H   0  0  0  0  0  0  0  0  0  0  0  0
    6.0072   -1.9683   -2.2171 H   0  0  0  0  0  0  0  0  0  0  0  0
    3.4046   -1.1585   -1.0052 H   0  0  0  0  0  0  0  0  0  0  0  0
   -2.4363    0.5085    1.6322 H   0  0  0  0  0  0  0  0  0  0  0  0
  1  2  3  0
  2  3  1  0
  3  4  1  0
  4  5  1  0
  5  6  2  0
  5  7  2  0
  5  8  1  0
  8  9  2  0
  9 10  1  0
 10 11  2  0
 11 12  1  0
 12 13  1  0
 13 14  2  0
 14 15  1  0
 15 16  1  0
 16 17  2  0
 17 18  1  0
 18 19  2  0
 19 20  1  0
 20 21  1  0
 21 22  2  0
 22 23  1  0
 23 24  2  0
 15 25  2  0
 25 26  1  0
 12 27  2  0
 27  8  1  0
 26 13  1  0
 24 16  1  0
 23 19  1  0
  1 28  1  0
  3 29  1  0
  3 30  1  0
  4 31  1  0
  9 32  1  0
 10 33  1  0
 11 34  1  0
 17 35  1  0
 18 36  1  0
 20 37  1  0
 21 38  1  0
 22 39  1  0
 24 40  1  0
 27 41  1  0
M  END
$$$$
OCNT-2314087
     RDKit          3D

 54 59  0  0  0  0  0  0  0  0999 V2000
    9.7440    1.7109    1.6730 C   0  0  0  0  0  0  0  0  0  0  0  0
    9.0050    0.9014    0.6865 C   0  0  0  0  0  0  0  0  0  0  0  0
    9.4764    0.3237   -0.3944 N   0  0  0  0  0  0  0  0  0  0  0  0
    8.4350   -0.3299   -1.0106 N   0  0  0  0  0  0  0  0  0  0  0  0
    7.3346   -0.1397   -0.3046 C   0  0  0  0  0  0  0  0  0  0  0  0
    5.9981   -0.6560   -0.6098 C   0  0  0  0  0  0  0  0  0  0  0  0
    5.8160   -1.4498   -1.7519 C   0  0  0  0  0  0  0  0  0  0  0  0
    4.5596   -1.9594   -2.0821 C   0  0  0  0  0  0  0  0  0  0  0  0
    3.4612   -1.6817   -1.2710 C   0  0  0  0  0  0  0  0  0  0  0  0
    3.6087   -0.8933   -0.1224 C   0  0  0  0  0  0  0  0  0  0  0  0
    2.4545   -0.6077    0.7237 C   0  0  0  0  0  0  0  0  0  0  0  0
    2.5143    0.1098    1.8582 N   0  0  0  0  0  0  0  0  0  0  0  0
    1.2012    0.1150    2.3201 O   0  0  0  0  0  0  0  0  0  0  0  0
    0.4706   -0.5976    1.4186 C   0  0  0  0  0  0  0  0  0  0  0  0
   -0.9768   -0.7182    1.6796 C   0  0  0  0  0  0  0  0  0  0  0  0
   -1.5315   -2.0995    1.3805 C   0  0  0  0  0  0  0  0  0  0  0  0
   -2.9779   -1.8185    1.0530 C   0  0  0  0  0  0  0  0  0  0  0  0
   -3.8336   -2.6877    1.0771 O   0  0  0  0  0  0  0  0  0  0  0  0
   -3.0873   -0.4652    0.6990 N   0  0  0  0  0  0  0  0  0  0  0  0
   -4.2497    0.1907    0.2033 C   0  0  0  0  0  0  0  0  0  0  0  0
   -4.1720    1.5228   -0.2698 C   0  0  0  0  0  0  0  0  0  0  0  0
   -5.2925    2.2004   -0.7682 C   0  0  0  0  0  0  0  0  0  0  0  0
   -6.5043    1.5415   -0.7832 C   0  0  0  0  0  0  0  0  0  0  0  0
   -7.8207    2.0284   -1.2986 C   0  0  0  0  0  0  0  0  0  0  0  0
   -8.7830    1.0190   -0.6553 C   0  0  0  0  0  0  0  0  0  0  0  0
   -7.9989   -0.2902   -0.4895 C   0  0  0  0  0  0  0  0  0  0  0  0
   -6.6040    0.2285   -0.3246 C   0  0  0  0  0  0  0  0  0  0  0  0
   -5.4955   -0.4530    0.1608 C   0  0  0  0  0  0  0  0  0  0  0  0
   -1.7991    0.1855    0.7794 C   0  0  0  0  0  0  0  0  0  0  0  0
    1.1859   -1.0544    0.4189 N   0  0  0  0  0  0  0  0  0  0  0  0
    4.8819   -0.3862    0.1981 C   0  0  0  0  0  0  0  0  0  0  0  0
    7.6658    0.6373    0.7783 N   0  0  0  0  0  0  0  0  0  0  0  0
    9.5675    1.3404    2.6881 H   0  0  0  0  0  0  0  0  0  0  0  0
    9.4299    2.7578    1.6238 H   0  0  0  0  0  0  0  0  0  0  0  0
   10.8204    1.6691    1.4783 H   0  0  0  0  0  0  0  0  0  0  0  0
    6.6642   -1.6763   -2.3975 H   0  0  0  0  0  0  0  0  0  0  0  0
    4.4405   -2.5734   -2.9717 H   0  0  0  0  0  0  0  0  0  0  0  0
    2.4881   -2.0874   -1.5428 H   0  0  0  0  0  0  0  0  0  0  0  0
   -1.1925   -0.4745    2.7291 H   0  0  0  0  0  0  0  0  0  0  0  0
   -1.4546   -2.7574    2.2505 H   0  0  0  0  0  0  0  0  0  0  0  0
   -1.0662   -2.5813    0.5145 H   0  0  0  0  0  0  0  0  0  0  0  0
   -3.2311    2.0650   -0.2814 H   0  0  0  0  0  0  0  0  0  0  0  0
   -5.2026    3.2175   -1.1375 H   0  0  0  0  0  0  0  0  0  0  0  0
   -7.8466    1.9585   -2.3905 H   0  0  0  0  0  0  0  0  0  0  0  0
   -8.0433    3.0507   -0.9817 H   0  0  0  0  0  0  0  0  0  0  0  0
   -9.7003    0.8857   -1.2370 H   0  0  0  0  0  0  0  0  0  0  0  0
   -9.0796    1.3877    0.3363 H   0  0  0  0  0  0  0  0  0  0  0  0
   -8.3438   -0.8553    0.3809 H   0  0  0  0  0  0  0  0  0  0  0  0
   -8.0665   -0.9084   -1.3906 H   0  0  0  0  0  0  0  0  0  0  0  0
   -5.6333   -1.4746    0.4977 H   0  0  0  0  0  0  0  0  0  0  0  0
   -1.3864    0.2687   -0.2336 H   0  0  0  0  0  0  0  0  0  0  0  0
   -1.8823    1.1824    1.2262 H   0  0  0  0  0  0  0  0  0  0  0  0
    4.9863    0.2255    1.0902 H   0  0  0  0  0  0  0  0  0  0  0  0
    7.0459    0.9525    1.5067 H   0  0  0  0  0  0  0  0  0  0  0  0
  1  2  1  0
  2  3  2  0
  3  4  1  0
  4  5  2  0
  5  6  1  0
  6  7  2  0
  7  8  1  0
  8  9  2  0
  9 10  1  0
 10 11  1  0
 11 12  2  0
 12 13  1  0
 13 14  1  0
 14 15  1  0
 15 16  1  0
 16 17  1  0
 17 18  2  0
 17 19  1  0
 19 20  1  0
 20 21  1  0
 21 22  2  0
 22 23  1  0
 23 24  1  0
 24 25  1  0
 25 26  1  0
 26 27  1  0
 27 28  1  0
 19 29  1  0
 14 30  2  0
 10 31  2  0
  5 32  1  0
 32  2  1  0
 31  6  1  0
 30 11  1  0
 29 15  1  0
 28 20  2  0
 27 23  2  0
  1 33  1  0
  1 34  1  0
  1 35  1  0
  7 36  1  0
  8 37  1  0
  9 38  1  0
 15 39  1  0
 16 40  1  0
 16 41  1  0
 21 42  1  0
 22 43  1  0
 24 44  1  0
 24 45  1  0
 25 46  1  0
 25 47  1  0
 26 48  1  0
 26 49  1  0
 28 50  1  0
 29 51  1  0
 29 52  1  0
 31 53  1  0
 32 54  1  0
M  END
$$$$
OCNT-2314112
     RDKit          3D

 46 48  0  0  0  0  0  0  0  0999 V2000
   -2.6034    1.1697   -1.8168 C   0  0  0  0  0  0  0  0  0  0  0  0
   -1.2471    1.1350   -1.1070 C   0  0  0  0  0  0  0  0  0  0  0  0
   -1.0037    2.4640   -0.3841 C   0  0  0  0  0  0  0  0  0  0  0  0
   -1.0540   -0.1228   -0.2011 C   0  0  0  0  0  0  0  0  0  0  0  0
   -1.9146   -0.1361    1.0977 C   0  0  0  0  0  0  0  0  0  0  0  0
   -3.3984   -0.3603    0.9251 C   0  0  0  0  0  0  0  0  0  0  0  0
   -3.8871   -1.5262    0.3185 C   0  0  0  0  0  0  0  0  0  0  0  0
   -5.2610   -1.7318    0.1802 C   0  0  0  0  0  0  0  0  0  0  0  0
   -6.1612   -0.7808    0.6558 C   0  0  0  0  0  0  0  0  0  0  0  0
   -5.6888    0.3740    1.2753 C   0  0  0  0  0  0  0  0  0  0  0  0
   -4.3154    0.5812    1.4144 C   0  0  0  0  0  0  0  0  0  0  0  0
    0.3704   -0.2328    0.2117 N   0  0  0  0  0  0  0  0  0  0  0  0
    1.2210   -0.8075   -0.8422 C   0  0  0  0  0  0  0  0  0  0  0  0
    2.6771   -0.7706   -0.3758 C   0  0  0  0  0  0  0  0  0  0  0  0
    3.4709    0.1481   -0.8591 N   0  0  0  0  0  0  0  0  0  0  0  0
    4.7605    0.1589   -0.4024 C   0  0  0  0  0  0  0  0  0  0  0  0
    5.8451    0.9621   -0.6752 C   0  0  0  0  0  0  0  0  0  0  0  0
    5.8891    2.0624   -1.5746 C   0  0  0  0  0  0  0  0  0  0  0  0
    5.9757    2.9644   -2.3001 N   0  0  0  0  0  0  0  0  0  0  0  0
    6.8908    0.4643    0.1180 C   0  0  0  0  0  0  0  0  0  0  0  0
    6.5244   -0.5875    0.8557 N   0  0  0  0  0  0  0  0  0  0  0  0
    5.2128   -0.7694    0.5348 N   0  0  0  0  0  0  0  0  0  0  0  0
    4.3587   -1.7569    1.0404 C   0  0  0  0  0  0  0  0  0  0  0  0
    4.8462   -2.6667    1.9646 O   0  0  0  0  0  0  0  0  0  0  0  0
    3.0876   -1.8121    0.6249 C   0  0  0  0  0  0  0  0  0  0  0  0
   -2.8370    0.2014   -2.2706 H   0  0  0  0  0  0  0  0  0  0  0  0
   -2.5871    1.9133   -2.6219 H   0  0  0  0  0  0  0  0  0  0  0  0
   -3.4173    1.4511   -1.1454 H   0  0  0  0  0  0  0  0  0  0  0  0
   -0.5077    1.0815   -1.9158 H   0  0  0  0  0  0  0  0  0  0  0  0
   -1.0284    3.2952   -1.0978 H   0  0  0  0  0  0  0  0  0  0  0  0
   -1.7696    2.6617    0.3722 H   0  0  0  0  0  0  0  0  0  0  0  0
   -0.0244    2.4819    0.1041 H   0  0  0  0  0  0  0  0  0  0  0  0
   -1.3083   -1.0174   -0.7842 H   0  0  0  0  0  0  0  0  0  0  0  0
   -1.7340    0.7778    1.6771 H   0  0  0  0  0  0  0  0  0  0  0  0
   -1.5724   -0.9540    1.7489 H   0  0  0  0  0  0  0  0  0  0  0  0
   -3.2031   -2.2877   -0.0476 H   0  0  0  0  0  0  0  0  0  0  0  0
   -5.6296   -2.6367   -0.2957 H   0  0  0  0  0  0  0  0  0  0  0  0
   -7.2305   -0.9415    0.5482 H   0  0  0  0  0  0  0  0  0  0  0  0
   -6.3898    1.1144    1.6516 H   0  0  0  0  0  0  0  0  0  0  0  0
   -3.9657    1.4887    1.9020 H   0  0  0  0  0  0  0  0  0  0  0  0
    0.4413   -0.8137    1.0458 H   0  0  0  0  0  0  0  0  0  0  0  0
    0.9398   -1.8475   -1.0431 H   0  0  0  0  0  0  0  0  0  0  0  0
    1.1544   -0.2466   -1.7791 H   0  0  0  0  0  0  0  0  0  0  0  0
    7.9106    0.8238    0.1902 H   0  0  0  0  0  0  0  0  0  0  0  0
    5.7857   -2.4205    2.1095 H   0  0  0  0  0  0  0  0  0  0  0  0
    2.3776   -2.5479    0.9725 H   0  0  0  0  0  0  0  0  0  0  0  0
  1  2  1  0
  2  3  1  0
  2  4  1  0
  4  5  1  0
  5  6  1  0
  6  7  2  0
  7  8  1  0
  8  9  2  0
  9 10  1  0
 10 11  2  0
  4 12  1  0
 12 13  1  0
 13 14  1  0
 14 15  2  0
 15 16  1  0
 16 17  2  0
 17 18  1  0
 18 19  3  0
 17 20  1  0
 20 21  2  0
 21 22  1  0
 22 23  1  0
 23 24  1  0
 23 25  2  0
 11  6  1  0
 25 14  1  0
 22 16  1  0
  1 26  1  0
  1 27  1  0
  1 28  1  0
  2 29  1  0
  3 30  1  0
  3 31  1  0
  3 32  1  0
  4 33  1  0
  5 34  1  0
  5 35  1  0
  7 36  1  0
  8 37  1  0
  9 38  1  0
 10 39  1  0
 11 40  1  0
 12 41  1  0
 13 42  1  0
 13 43  1  0
 20 44  1  0
 24 45  1  0
 25 46  1  0
M  END
$$$$
OCNT-2314118
     RDKit          3D

 55 57  0  0  0  0  0  0  0  0999 V2000
   -2.7247   -0.7718    0.7651 O   0  0  0  0  0  0  0  0  0  0  0  0
   -2.4685   -0.0563   -0.1947 C   0  0  0  0  0  0  0  0  0  0  0  0
   -3.5181    0.6655   -1.0239 C   0  0  0  0  0  0  0  0  0  0  0  0
   -4.9530    0.5042   -0.5004 C   0  0  0  0  0  0  0  0  0  0  0  0
   -5.4967   -0.9154   -0.7360 C   0  0  0  0  0  0  0  0  0  0  0  0
   -6.9399   -1.0494   -0.2567 C   0  0  0  0  0  0  0  0  0  0  0  0
   -7.8475   -0.0148   -0.9134 C   0  0  0  0  0  0  0  0  0  0  0  0
   -7.3210    1.4017   -0.7192 C   0  0  0  0  0  0  0  0  0  0  0  0
   -5.8731    1.5379   -1.1783 C   0  0  0  0  0  0  0  0  0  0  0  0
   -1.1847    0.1748   -0.6554 N   0  0  0  0  0  0  0  0  0  0  0  0
   -0.0158   -0.3410    0.0435 C   0  0  0  0  0  0  0  0  0  0  0  0
    0.3066    0.5164    1.2741 C   0  0  0  0  0  0  0  0  0  0  0  0
    1.5728    0.0337    1.9770 C   0  0  0  0  0  0  0  0  0  0  0  0
    2.7714   -0.0015    1.0235 C   0  0  0  0  0  0  0  0  0  0  0  0
    4.0154   -0.5323    1.7284 C   0  0  0  0  0  0  0  0  0  0  0  0
    3.9812   -1.1613    2.7810 O   0  0  0  0  0  0  0  0  0  0  0  0
    5.1832   -0.2671    1.0572 N   0  0  0  0  0  0  0  0  0  0  0  0
    6.4526   -0.5981    1.6600 C   0  0  0  0  0  0  0  0  0  0  0  0
    7.5157   -0.4045    0.6389 C   0  0  0  0  0  0  0  0  0  0  0  0
    8.3891   -1.3285    0.1106 C   0  0  0  0  0  0  0  0  0  0  0  0
    9.1716   -0.6305   -0.7667 N   0  0  0  0  0  0  0  0  0  0  0  0
    8.7365    0.6627   -0.7661 C   0  0  0  0  0  0  0  0  0  0  0  0
    7.7278    0.8309    0.0581 N   0  0  0  0  0  0  0  0  0  0  0  0
    2.4591   -0.8570   -0.2114 C   0  0  0  0  0  0  0  0  0  0  0  0
    1.1815   -0.3999   -0.9116 C   0  0  0  0  0  0  0  0  0  0  0  0
   -3.2505    1.7297   -1.0165 H   0  0  0  0  0  0  0  0  0  0  0  0
   -3.4487    0.3104   -2.0591 H   0  0  0  0  0  0  0  0  0  0  0  0
   -4.9574    0.7018    0.5806 H   0  0  0  0  0  0  0  0  0  0  0  0
   -5.4454   -1.1616   -1.8035 H   0  0  0  0  0  0  0  0  0  0  0  0
   -4.8873   -1.6570   -0.2125 H   0  0  0  0  0  0  0  0  0  0  0  0
   -7.3090   -2.0575   -0.4809 H   0  0  0  0  0  0  0  0  0  0  0  0
   -6.9759   -0.9299    0.8336 H   0  0  0  0  0  0  0  0  0  0  0  0
   -7.9263   -0.2289   -1.9855 H   0  0  0  0  0  0  0  0  0  0  0  0
   -8.8564   -0.0931   -0.4971 H   0  0  0  0  0  0  0  0  0  0  0  0
   -7.9497    2.1051   -1.2770 H   0  0  0  0  0  0  0  0  0  0  0  0
   -7.3947    1.6778    0.3384 H   0  0  0  0  0  0  0  0  0  0  0  0
   -5.5229    2.5553   -0.9565 H   0  0  0  0  0  0  0  0  0  0  0  0
   -5.8287    1.4188   -2.2707 H   0  0  0  0  0  0  0  0  0  0  0  0
   -1.0479    0.9301   -1.3181 H   0  0  0  0  0  0  0  0  0  0  0  0
   -0.2520   -1.3577    0.3808 H   0  0  0  0  0  0  0  0  0  0  0  0
    0.4304    1.5676    0.9764 H   0  0  0  0  0  0  0  0  0  0  0  0
   -0.5294    0.4954    1.9830 H   0  0  0  0  0  0  0  0  0  0  0  0
    1.7947    0.6966    2.8222 H   0  0  0  0  0  0  0  0  0  0  0  0
    1.3930   -0.9636    2.4014 H   0  0  0  0  0  0  0  0  0  0  0  0
    2.9832    1.0296    0.7056 H   0  0  0  0  0  0  0  0  0  0  0  0
    5.2092    0.4945    0.3916 H   0  0  0  0  0  0  0  0  0  0  0  0
    6.4288   -1.6291    2.0251 H   0  0  0  0  0  0  0  0  0  0  0  0
    6.6150    0.0680    2.5114 H   0  0  0  0  0  0  0  0  0  0  0  0
    8.5227   -2.3864    0.2872 H   0  0  0  0  0  0  0  0  0  0  0  0
    9.9316   -1.0068   -1.3211 H   0  0  0  0  0  0  0  0  0  0  0  0
    9.1926    1.4299   -1.3790 H   0  0  0  0  0  0  0  0  0  0  0  0
    3.2919   -0.8155   -0.9247 H   0  0  0  0  0  0  0  0  0  0  0  0
    2.3580   -1.9094    0.0849 H   0  0  0  0  0  0  0  0  0  0  0  0
    0.9591   -1.0776   -1.7459 H   0  0  0  0  0  0  0  0  0  0  0  0
    1.3505    0.5896   -1.3580 H   0  0  0  0  0  0  0  0  0  0  0  0
  1  2  2  0
  2  3  1  0
  3  4  1  0
  4  5  1  0
  5  6  1  0
  6  7  1  0
  7  8  1  0
  8  9  1  0
  2 10  1  0
 10 11  1  0
 11 12  1  0
 12 13  1  0
 13 14  1  0
 14 15  1  0
 15 16  2  0
 15 17  1  0
 17 18  1  0
 18 19  1  0
 19 20  2  0
 20 21  1  0
 21 22  1  0
 22 23  2  0
 14 24  1  0
 24 25  1  0
  9  4  1  0
 25 11  1  0
 23 19  1  0
  3 26  1  0
  3 27  1  0
  4 28  1  0
  5 29  1  0
  5 30  1  0
  6 31  1  0
  6 32  1  0
  7 33  1  0
  7 34  1  0
  8 35  1  0
  8 36  1  0
  9 37  1  0
  9 38  1  0
 10 39  1  0
 11 40  1  0
 12 41  1  0
 12 42  1  0
 13 43  1  0
 13 44  1  0
 14 45  1  0
 17 46  1  0
 18 47  1  0
 18 48  1  0
 20 49  1  0
 21 50  1  0
 22 51  1  0
 24 52  1  0
 24 53  1  0
 25 54  1  0
 25 55  1  0
M  END
$$$$
OCNT-2314120
     RDKit          3D

 35 38  0  0  0  0  0  0  0  0999 V2000
   -2.2399   -0.9832    1.7877 C   0  0  0  0  0  0  0  0  0  0  0  0
   -3.0482   -0.3272    0.6973 C   0  0  0  0  0  0  0  0  0  0  0  0
   -4.4463   -0.3928    0.8179 C   0  0  0  0  0  0  0  0  0  0  0  0
   -5.2604    0.1430   -0.1662 C   0  0  0  0  0  0  0  0  0  0  0  0
   -4.6821    0.7415   -1.2809 C   0  0  0  0  0  0  0  0  0  0  0  0
   -3.3077    0.8386   -1.4380 C   0  0  0  0  0  0  0  0  0  0  0  0
   -2.8842    1.4285   -2.5574 N   0  0  0  0  0  0  0  0  0  0  0  0
   -1.5662    1.5277   -2.7243 C   0  0  0  0  0  0  0  0  0  0  0  0
   -0.6381    1.1138   -1.8662 N   0  0  0  0  0  0  0  0  0  0  0  0
   -1.0702    0.5343   -0.7284 C   0  0  0  0  0  0  0  0  0  0  0  0
   -0.0939    0.1805    0.2391 N   0  0  0  0  0  0  0  0  0  0  0  0
    1.3010    0.0090    0.0642 C   0  0  0  0  0  0  0  0  0  0  0  0
    1.8573   -0.4374   -1.1394 C   0  0  0  0  0  0  0  0  0  0  0  0
    3.2310   -0.6763   -1.2840 C   0  0  0  0  0  0  0  0  0  0  0  0
    4.0414   -0.4813   -0.1632 C   0  0  0  0  0  0  0  0  0  0  0  0
    5.4002   -0.6364   -0.0080 N   0  0  0  0  0  0  0  0  0  0  0  0
    5.7648   -0.3471    1.2805 C   0  0  0  0  0  0  0  0  0  0  0  0
    4.6266    0.0021    1.9712 C   0  0  0  0  0  0  0  0  0  0  0  0
    3.5307   -0.0750    1.0675 C   0  0  0  0  0  0  0  0  0  0  0  0
    2.1443    0.1564    1.1822 C   0  0  0  0  0  0  0  0  0  0  0  0
   -2.4511    0.3291   -0.4425 C   0  0  0  0  0  0  0  0  0  0  0  0
   -1.5143   -1.6848    1.3656 H   0  0  0  0  0  0  0  0  0  0  0  0
   -2.8770   -1.5695    2.4599 H   0  0  0  0  0  0  0  0  0  0  0  0
   -1.7373   -0.2290    2.4000 H   0  0  0  0  0  0  0  0  0  0  0  0
   -4.9082   -0.8759    1.6770 H   0  0  0  0  0  0  0  0  0  0  0  0
   -6.3420    0.0865   -0.0774 H   0  0  0  0  0  0  0  0  0  0  0  0
   -5.3291    1.1472   -2.0567 H   0  0  0  0  0  0  0  0  0  0  0  0
   -1.2183    1.9945   -3.6387 H   0  0  0  0  0  0  0  0  0  0  0  0
   -0.2901    0.7051    1.0848 H   0  0  0  0  0  0  0  0  0  0  0  0
    1.2165   -0.6131   -2.0004 H   0  0  0  0  0  0  0  0  0  0  0  0
    3.6371   -1.0088   -2.2332 H   0  0  0  0  0  0  0  0  0  0  0  0
    6.0306   -0.9257   -0.7429 H   0  0  0  0  0  0  0  0  0  0  0  0
    6.7980   -0.4151    1.5930 H   0  0  0  0  0  0  0  0  0  0  0  0
    4.5843    0.2851    3.0146 H   0  0  0  0  0  0  0  0  0  0  0  0
    1.7408    0.4558    2.1440 H   0  0  0  0  0  0  0  0  0  0  0  0
  1  2  1  0
  2  3  2  0
  3  4  1  0
  4  5  2  0
  5  6  1  0
  6  7  2  0
  7  8  1  0
  8  9  2  0
  9 10  1  0
 10 11  1  0
 11 12  1  0
 12 13  2  0
 13 14  1  0
 14 15  2  0
 15 16  1  0
 16 17  1  0
 17 18  2  0
 18 19  1  0
 19 20  2  0
 10 21  2  0
 21  2  1  0
 21  6  1  0
 20 12  1  0
 19 15  1  0
  1 22  1  0
  1 23  1  0
  1 24  1  0
  3 25  1  0
  4 26  1  0
  5 27  1  0
  8 28  1  0
 11 29  1  0
 13 30  1  0
 14 31  1  0
 16 32  1  0
 17 33  1  0
 18 34  1  0
 20 35  1  0
M  END
$$$$
OCNT-2314135
     RDKit          3D

 41 43  0  0  0  0  0  0  0  0999 V2000
   -4.8474    2.7940    1.2805 C   0  0  0  0  0  0  0  0  0  0  0  0
   -4.8135    1.7230    0.2492 C   0  0  0  0  0  0  0  0  0  0  0  0
   -5.8970    1.4909   -0.5039 N   0  0  0  0  0  0  0  0  0  0  0  0
   -5.5288    0.4825   -1.3037 N   0  0  0  0  0  0  0  0  0  0  0  0
   -6.4661   -0.0281   -2.2737 C   0  0  0  0  0  0  0  0  0  0  0  0
   -4.2486    0.0589   -1.0943 C   0  0  0  0  0  0  0  0  0  0  0  0
   -3.7296    0.8536   -0.0838 C   0  0  0  0  0  0  0  0  0  0  0  0
   -2.3972    0.8307    0.5252 C   0  0  0  0  0  0  0  0  0  0  0  0
   -2.1186    1.5967    1.4406 O   0  0  0  0  0  0  0  0  0  0  0  0
   -1.5349   -0.1013   -0.0260 N   0  0  0  0  0  0  0  0  0  0  0  0
   -0.2016   -0.3744    0.3464 C   0  0  0  0  0  0  0  0  0  0  0  0
    0.4747   -1.3598   -0.3842 C   0  0  0  0  0  0  0  0  0  0  0  0
    1.7989   -1.6939   -0.0829 C   0  0  0  0  0  0  0  0  0  0  0  0
    2.4749   -1.0482    0.9585 C   0  0  0  0  0  0  0  0  0  0  0  0
    3.9088   -1.3992    1.2830 C   0  0  0  0  0  0  0  0  0  0  0  0
    4.9030   -0.9426    0.2416 C   0  0  0  0  0  0  0  0  0  0  0  0
    5.6566   -1.8695   -0.4837 C   0  0  0  0  0  0  0  0  0  0  0  0
    6.5622   -1.3994   -1.4230 C   0  0  0  0  0  0  0  0  0  0  0  0
    6.7656   -0.0900   -1.6861 N   0  0  0  0  0  0  0  0  0  0  0  0
    6.0292    0.7891   -0.9752 C   0  0  0  0  0  0  0  0  0  0  0  0
    5.1024    0.4186   -0.0140 C   0  0  0  0  0  0  0  0  0  0  0  0
    1.7971   -0.0652    1.6892 C   0  0  0  0  0  0  0  0  0  0  0  0
    0.4714    0.2685    1.3850 C   0  0  0  0  0  0  0  0  0  0  0  0
   -4.1544    3.5993    1.0171 H   0  0  0  0  0  0  0  0  0  0  0  0
   -4.5661    2.3939    2.2594 H   0  0  0  0  0  0  0  0  0  0  0  0
   -5.8472    3.2291    1.3749 H   0  0  0  0  0  0  0  0  0  0  0  0
   -7.3708   -0.3431   -1.7475 H   0  0  0  0  0  0  0  0  0  0  0  0
   -6.6922    0.7704   -2.9851 H   0  0  0  0  0  0  0  0  0  0  0  0
   -6.0223   -0.8785   -2.7961 H   0  0  0  0  0  0  0  0  0  0  0  0
   -3.8349   -0.7497   -1.6790 H   0  0  0  0  0  0  0  0  0  0  0  0
   -1.8915   -0.6491   -0.7929 H   0  0  0  0  0  0  0  0  0  0  0  0
   -0.0145   -1.8811   -1.2025 H   0  0  0  0  0  0  0  0  0  0  0  0
    2.3020   -2.4573   -0.6725 H   0  0  0  0  0  0  0  0  0  0  0  0
    3.9730   -2.4865    1.4208 H   0  0  0  0  0  0  0  0  0  0  0  0
    4.1988   -0.9688    2.2494 H   0  0  0  0  0  0  0  0  0  0  0  0
    5.5476   -2.9371   -0.3275 H   0  0  0  0  0  0  0  0  0  0  0  0
    7.1670   -2.0879   -2.0084 H   0  0  0  0  0  0  0  0  0  0  0  0
    6.2096    1.8365   -1.2031 H   0  0  0  0  0  0  0  0  0  0  0  0
    4.5439    1.1789    0.5201 H   0  0  0  0  0  0  0  0  0  0  0  0
    2.2928    0.4574    2.5048 H   0  0  0  0  0  0  0  0  0  0  0  0
   -0.0025    1.0386    1.9850 H   0  0  0  0  0  0  0  0  0  0  0  0
  1  2  1  0
  2  3  2  0
  3  4  1  0
  4  5  1  0
  4  6  1  0
  6  7  2  0
  7  8  1  0
  8  9  2  0
  8 10  1  0
 10 11  1  0
 11 12  1  0
 12 13  2  0
 13 14  1  0
 14 15  1  0
 15 16  1  0
 16 17  2  0
 17 18  1  0
 18 19  2  0
 19 20  1  0
 20 21  2  0
 14 22  2  0
 22 23  1  0
  7  2  1  0
 23 11  2  0
 21 16  1  0
  1 24  1  0
  1 25  1  0
  1 26  1  0
  5 27  1  0
  5 28  1  0
  5 29  1  0
  6 30  1  0
 10 31  1  0
 12 32  1  0
 13 33  1  0
 15 34  1  0
 15 35  1  0
 17 36  1  0
 18 37  1  0
 20 38  1  0
 21 39  1  0
 22 40  1  0
 23 41  1  0
M  END
$$$$
OCNT-2314136
     RDKit          3D

 33 36  0  0  0  0  0  0  0  0999 V2000
   -6.0232   -0.8882   -0.1068 F   0  0  0  0  0  0  0  0  0  0  0  0
   -5.4796    0.1446   -0.7931 C   0  0  0  0  0  0  0  0  0  0  0  0
   -6.4946    0.7778   -1.4193 F   0  0  0  0  0  0  0  0  0  0  0  0
   -4.2625   -0.2246   -1.6716 C   0  0  0  0  0  0  0  0  0  0  0  0
   -3.3780    0.1156   -0.4506 C   0  0  0  0  0  0  0  0  0  0  0  0
   -2.0511    0.8379   -0.7807 C   0  0  0  0  0  0  0  0  0  0  0  0
   -1.9304    1.8455   -1.6139 N   0  0  0  0  0  0  0  0  0  0  0  0
   -0.6071    2.2278   -1.6132 N   0  0  0  0  0  0  0  0  0  0  0  0
    0.0564    1.4223   -0.8139 C   0  0  0  0  0  0  0  0  0  0  0  0
    1.3580    1.4720   -0.4701 N   0  0  0  0  0  0  0  0  0  0  0  0
    2.2057    0.4390   -0.0225 C   0  0  0  0  0  0  0  0  0  0  0  0
    1.9458   -0.9315   -0.2525 C   0  0  0  0  0  0  0  0  0  0  0  0
    2.7858   -1.9309    0.2572 C   0  0  0  0  0  0  0  0  0  0  0  0
    3.8758   -1.5358    0.9981 C   0  0  0  0  0  0  0  0  0  0  0  0
    4.7920   -2.3598    1.5711 O   0  0  0  0  0  0  0  0  0  0  0  0
    5.6744   -1.3982    2.1876 C   0  0  0  0  0  0  0  0  0  0  0  0
    5.2627   -0.0296    1.9814 O   0  0  0  0  0  0  0  0  0  0  0  0
    4.1436   -0.2094    1.2298 C   0  0  0  0  0  0  0  0  0  0  0  0
    3.3331    0.7938    0.7381 C   0  0  0  0  0  0  0  0  0  0  0  0
   -0.8291    0.5468   -0.2484 N   0  0  0  0  0  0  0  0  0  0  0  0
   -4.5207    1.0399    0.0243 C   0  0  0  0  0  0  0  0  0  0  0  0
   -4.1438    0.4280   -2.5455 H   0  0  0  0  0  0  0  0  0  0  0  0
   -4.2231   -1.2674   -2.0000 H   0  0  0  0  0  0  0  0  0  0  0  0
   -3.2287   -0.7431    0.2175 H   0  0  0  0  0  0  0  0  0  0  0  0
    1.8657    2.2874   -0.8055 H   0  0  0  0  0  0  0  0  0  0  0  0
    1.1108   -1.2395   -0.8769 H   0  0  0  0  0  0  0  0  0  0  0  0
    2.5928   -2.9809    0.0654 H   0  0  0  0  0  0  0  0  0  0  0  0
    5.7097   -1.5943    3.2661 H   0  0  0  0  0  0  0  0  0  0  0  0
    6.6808   -1.5296    1.7724 H   0  0  0  0  0  0  0  0  0  0  0  0
    3.5652    1.8316    0.9547 H   0  0  0  0  0  0  0  0  0  0  0  0
   -0.6113   -0.1418    0.4533 H   0  0  0  0  0  0  0  0  0  0  0  0
   -4.4783    2.0742   -0.3354 H   0  0  0  0  0  0  0  0  0  0  0  0
   -4.6970    1.0480    1.1030 H   0  0  0  0  0  0  0  0  0  0  0  0
  1  2  1  0
  2  3  1  0
  2  4  1  0
  4  5  1  0
  5  6  1  0
  6  7  2  0
  7  8  1  0
  8  9  2  0
  9 10  1  0
 10 11  1  0
 11 12  1  0
 12 13  2  0
 13 14  1  0
 14 15  1  0
 15 16  1  0
 16 17  1  0
 17 18  1  0
 18 19  1  0
  9 20  1  0
  5 21  1  0
 21  2  1  0
 20  6  1  0
 19 11  2  0
 18 14  2  0
  4 22  1  0
  4 23  1  0
  5 24  1  0
 10 25  1  0
 12 26  1  0
 13 27  1  0
 16 28  1  0
 16 29  1  0
 19 30  1  0
 20 31  1  0
 21 32  1  0
 21 33  1  0
M  END
$$$$
OCNT-2314144
     RDKit          3D

 42 45  0  0  0  0  0  0  0  0999 V2000
    6.3907    3.7846   -0.5678 F   0  0  0  0  0  0  0  0  0  0  0  0
    5.6572    2.6716   -0.4395 C   0  0  0  0  0  0  0  0  0  0  0  0
    4.5007    2.5215   -1.1875 C   0  0  0  0  0  0  0  0  0  0  0  0
    3.7393    1.3576   -1.0487 C   0  0  0  0  0  0  0  0  0  0  0  0
    4.1097    0.3183   -0.1673 C   0  0  0  0  0  0  0  0  0  0  0  0
    3.2136   -0.9883   -0.0288 C   0  0  0  0  0  0  0  0  0  0  0  0
    3.8934   -2.3838    0.0825 C   0  0  0  0  0  0  0  0  0  0  0  0
    2.7312   -2.7976    1.0103 C   0  0  0  0  0  0  0  0  0  0  0  0
    2.5752   -1.2995    1.3612 C   0  0  0  0  0  0  0  0  0  0  0  0
    1.1114   -0.8100    1.5315 C   0  0  0  0  0  0  0  0  0  0  0  0
    0.1791   -0.9281    0.6144 N   0  0  0  0  0  0  0  0  0  0  0  0
   -0.9258   -0.3565    1.2145 C   0  0  0  0  0  0  0  0  0  0  0  0
   -2.2243   -0.2547    0.5528 C   0  0  0  0  0  0  0  0  0  0  0  0
   -3.3186    0.3236    1.1925 C   0  0  0  0  0  0  0  0  0  0  0  0
   -4.5468    0.4399    0.6173 N   0  0  0  0  0  0  0  0  0  0  0  0
   -4.6404   -0.0452   -0.6390 C   0  0  0  0  0  0  0  0  0  0  0  0
   -5.8387    0.0106   -1.3155 O   0  0  0  0  0  0  0  0  0  0  0  0
   -6.8607    0.7079   -0.5896 C   0  0  0  0  0  0  0  0  0  0  0  0
   -8.1300    0.7375   -1.4223 C   0  0  0  0  0  0  0  0  0  0  0  0
   -9.1834    1.0964   -0.6451 F   0  0  0  0  0  0  0  0  0  0  0  0
   -8.0263    1.6848   -2.3909 F   0  0  0  0  0  0  0  0  0  0  0  0
   -3.5589   -0.6253   -1.2866 C   0  0  0  0  0  0  0  0  0  0  0  0
   -2.3354   -0.7436   -0.7132 N   0  0  0  0  0  0  0  0  0  0  0  0
   -0.6850    0.0919    2.4597 N   0  0  0  0  0  0  0  0  0  0  0  0
    0.6584   -0.2057    2.6684 O   0  0  0  0  0  0  0  0  0  0  0  0
    5.2933    0.5206    0.5747 C   0  0  0  0  0  0  0  0  0  0  0  0
    6.0615    1.6815    0.4422 C   0  0  0  0  0  0  0  0  0  0  0  0
    4.1951    3.3057   -1.8724 H   0  0  0  0  0  0  0  0  0  0  0  0
    2.8303    1.2543   -1.6408 H   0  0  0  0  0  0  0  0  0  0  0  0
    2.4660   -1.0149   -0.8396 H   0  0  0  0  0  0  0  0  0  0  0  0
    4.8698   -2.3932    0.5791 H   0  0  0  0  0  0  0  0  0  0  0  0
    3.9702   -2.9473   -0.8515 H   0  0  0  0  0  0  0  0  0  0  0  0
    3.0062   -3.4527    1.8414 H   0  0  0  0  0  0  0  0  0  0  0  0
    1.8838   -3.2426    0.4752 H   0  0  0  0  0  0  0  0  0  0  0  0
    3.2018   -0.9998    2.2116 H   0  0  0  0  0  0  0  0  0  0  0  0
   -3.2483    0.7185    2.2016 H   0  0  0  0  0  0  0  0  0  0  0  0
   -6.5453    1.7377   -0.3822 H   0  0  0  0  0  0  0  0  0  0  0  0
   -7.0719    0.1876    0.3526 H   0  0  0  0  0  0  0  0  0  0  0  0
   -8.3466   -0.2225   -1.8992 H   0  0  0  0  0  0  0  0  0  0  0  0
   -3.6486   -1.0142   -2.2946 H   0  0  0  0  0  0  0  0  0  0  0  0
    5.6279   -0.2419    1.2754 H   0  0  0  0  0  0  0  0  0  0  0  0
    6.9691    1.8155    1.0217 H   0  0  0  0  0  0  0  0  0  0  0  0
  1  2  1  0
  2  3  1  0
  3  4  2  0
  4  5  1  0
  5  6  1  0
  6  7  1  0
  7  8  1  0
  8  9  1  0
  9 10  1  0
 10 11  2  0
 11 12  1  0
 12 13  1  0
 13 14  1  0
 14 15  2  0
 15 16  1  0
 16 17  1  0
 17 18  1  0
 18 19  1  0
 19 20  1  0
 19 21  1  0
 16 22  2  0
 22 23  1  0
 12 24  2  0
 24 25  1  0
  5 26  2  0
 26 27  1  0
 27  2  2  0
  9  6  1  0
 25 10  1  0
 23 13  2  0
  3 28  1  0
  4 29  1  0
  6 30  1  0
  7 31  1  0
  7 32  1  0
  8 33  1  0
  8 34  1  0
  9 35  1  0
 14 36  1  0
 18 37  1  0
 18 38  1  0
 19 39  1  0
 22 40  1  0
 26 41  1  0
 27 42  1  0
M  END
$$$$
OCNT-2314158
     RDKit          3D

 40 43  0  0  0  0  0  0  0  0999 V2000
    5.6680   -0.6284   -0.5589 C   0  0  0  0  0  0  0  0  0  0  0  0
    4.4661   -1.2745   -1.2267 C   0  0  0  0  0  0  0  0  0  0  0  0
    3.2129   -0.9721   -0.4934 C   0  0  0  0  0  0  0  0  0  0  0  0
    2.6179   -1.6716    0.4492 N   0  0  0  0  0  0  0  0  0  0  0  0
    1.5206   -0.9107    0.7900 C   0  0  0  0  0  0  0  0  0  0  0  0
    0.6281   -1.3464    1.8853 C   0  0  0  0  0  0  0  0  0  0  0  0
    1.4680    0.2172   -0.0114 C   0  0  0  0  0  0  0  0  0  0  0  0
    0.5809    1.3533   -0.0959 C   0  0  0  0  0  0  0  0  0  0  0  0
    1.0317    2.5011   -0.0539 O   0  0  0  0  0  0  0  0  0  0  0  0
   -0.8095    1.1512   -0.1311 N   0  0  0  0  0  0  0  0  0  0  0  0
   -1.5265   -0.0332   -0.5356 C   0  0  0  0  0  0  0  0  0  0  0  0
   -0.9738   -1.0590   -1.2995 C   0  0  0  0  0  0  0  0  0  0  0  0
   -1.7608   -2.1621   -1.6057 C   0  0  0  0  0  0  0  0  0  0  0  0
   -3.0492   -2.3060   -1.2322 N   0  0  0  0  0  0  0  0  0  0  0  0
   -3.5966   -1.2786   -0.5471 C   0  0  0  0  0  0  0  0  0  0  0  0
   -2.9014   -0.1260   -0.1907 C   0  0  0  0  0  0  0  0  0  0  0  0
   -3.5914    0.9477    0.4915 N   0  0  0  0  0  0  0  0  0  0  0  0
   -3.0750    1.0015    1.8911 C   0  0  0  0  0  0  0  0  0  0  0  0
   -1.9308    2.0300    1.8858 C   0  0  0  0  0  0  0  0  0  0  0  0
   -1.6568    2.2540    0.3955 C   0  0  0  0  0  0  0  0  0  0  0  0
   -3.0832    2.1834   -0.1563 C   0  0  0  0  0  0  0  0  0  0  0  0
    2.5747    0.1881   -0.8249 O   0  0  0  0  0  0  0  0  0  0  0  0
    6.5831   -0.8679   -1.1096 H   0  0  0  0  0  0  0  0  0  0  0  0
    5.7873   -0.9835    0.4706 H   0  0  0  0  0  0  0  0  0  0  0  0
    5.5653    0.4618   -0.5273 H   0  0  0  0  0  0  0  0  0  0  0  0
    4.6097   -2.3600   -1.2661 H   0  0  0  0  0  0  0  0  0  0  0  0
    4.3857   -0.9234   -2.2616 H   0  0  0  0  0  0  0  0  0  0  0  0
    0.0872   -0.5024    2.3215 H   0  0  0  0  0  0  0  0  0  0  0  0
   -0.1001   -2.0761    1.5197 H   0  0  0  0  0  0  0  0  0  0  0  0
    1.2083   -1.8177    2.6851 H   0  0  0  0  0  0  0  0  0  0  0  0
    0.0325   -1.0297   -1.6963 H   0  0  0  0  0  0  0  0  0  0  0  0
   -1.3576   -2.9853   -2.1904 H   0  0  0  0  0  0  0  0  0  0  0  0
   -4.6460   -1.3930   -0.2928 H   0  0  0  0  0  0  0  0  0  0  0  0
   -3.8791    1.3417    2.5536 H   0  0  0  0  0  0  0  0  0  0  0  0
   -2.7430    0.0235    2.2625 H   0  0  0  0  0  0  0  0  0  0  0  0
   -1.0599    1.6791    2.4473 H   0  0  0  0  0  0  0  0  0  0  0  0
   -2.2765    2.9614    2.3506 H   0  0  0  0  0  0  0  0  0  0  0  0
   -1.1936    3.2264    0.2051 H   0  0  0  0  0  0  0  0  0  0  0  0
   -3.1338    2.1472   -1.2522 H   0  0  0  0  0  0  0  0  0  0  0  0
   -3.6834    3.0391    0.1773 H   0  0  0  0  0  0  0  0  0  0  0  0
  1  2  1  0
  2  3  1  0
  3  4  2  0
  4  5  1  0
  5  6  1  0
  5  7  2  0
  7  8  1  0
  8  9  2  0
  8 10  1  0
 10 11  1  0
 11 12  2  0
 12 13  1  0
 13 14  2  0
 14 15  1  0
 15 16  2  0
 16 17  1  0
 17 18  1  0
 18 19  1  0
 19 20  1  0
 20 21  1  0
  7 22  1  0
 22  3  1  0
 20 10  1  0
 16 11  1  0
 21 17  1  0
  1 23  1  0
  1 24  1  0
  1 25  1  0
  2 26  1  0
  2 27  1  0
  6 28  1  0
  6 29  1  0
  6 30  1  0
 12 31  1  0
 13 32  1  0
 15 33  1  0
 18 34  1  0
 18 35  1  0
 19 36  1  0
 19 37  1  0
 20 38  1  0
 21 39  1  0
 21 40  1  0
M  END
$$$$
OCNT-2314160
     RDKit          3D

 47 48  0  0  0  0  0  0  0  0999 V2000
    2.2008    2.6529   -1.8401 C   0  0  0  0  0  0  0  0  0  0  0  0
    2.2574    1.3908   -1.1837 O   0  0  0  0  0  0  0  0  0  0  0  0
    1.9685    1.3622    0.1579 C   0  0  0  0  0  0  0  0  0  0  0  0
    1.5794    2.4772    0.9080 C   0  0  0  0  0  0  0  0  0  0  0  0
    1.2877    2.3497    2.2679 C   0  0  0  0  0  0  0  0  0  0  0  0
    1.3836    1.1095    2.8898 C   0  0  0  0  0  0  0  0  0  0  0  0
    1.7735   -0.0073    2.1536 C   0  0  0  0  0  0  0  0  0  0  0  0
    2.0670    0.1023    0.7836 C   0  0  0  0  0  0  0  0  0  0  0  0
    2.4859   -1.1417    0.0166 C   0  0  0  0  0  0  0  0  0  0  0  0
    1.3457   -1.8985   -0.7377 C   0  0  0  0  0  0  0  0  0  0  0  0
    1.9959   -3.0312   -1.5512 C   0  0  0  0  0  0  0  0  0  0  0  0
    0.3549   -2.5001    0.2638 C   0  0  0  0  0  0  0  0  0  0  0  0
    0.7141   -0.9609   -1.6866 N   0  0  0  0  0  0  0  0  0  0  0  0
   -0.7682   -1.0999   -2.4225 S   0  0  0  0  0  0  0  0  0  0  0  0
   -0.9890   -2.4885   -2.7568 O   0  0  0  0  0  0  0  0  0  0  0  0
   -0.8156   -0.0616   -3.4290 O   0  0  0  0  0  0  0  0  0  0  0  0
   -1.9053   -0.6341   -1.1698 C   0  0  0  0  0  0  0  0  0  0  0  0
   -2.9401   -1.4782   -0.8271 C   0  0  0  0  0  0  0  0  0  0  0  0
   -3.8352   -1.1904    0.1488 N   0  0  0  0  0  0  0  0  0  0  0  0
   -3.6970   -0.0181    0.7985 C   0  0  0  0  0  0  0  0  0  0  0  0
   -4.6474    0.2269    1.7859 N   0  0  0  0  0  0  0  0  0  0  0  0
   -2.6947    0.9097    0.4998 C   0  0  0  0  0  0  0  0  0  0  0  0
   -2.5779    2.2123    1.2320 C   0  0  0  0  0  0  0  0  0  0  0  0
   -1.7800    0.5832   -0.5073 C   0  0  0  0  0  0  0  0  0  0  0  0
    1.1844    3.0596   -1.8215 H   0  0  0  0  0  0  0  0  0  0  0  0
    2.4763    2.4955   -2.8873 H   0  0  0  0  0  0  0  0  0  0  0  0
    2.9202    3.3560   -1.4079 H   0  0  0  0  0  0  0  0  0  0  0  0
    1.4916    3.4639    0.4655 H   0  0  0  0  0  0  0  0  0  0  0  0
    0.9881    3.2227    2.8424 H   0  0  0  0  0  0  0  0  0  0  0  0
    1.1596    1.0117    3.9490 H   0  0  0  0  0  0  0  0  0  0  0  0
    1.8476   -0.9692    2.6568 H   0  0  0  0  0  0  0  0  0  0  0  0
    3.2749   -0.8551   -0.6930 H   0  0  0  0  0  0  0  0  0  0  0  0
    2.9825   -1.8320    0.7132 H   0  0  0  0  0  0  0  0  0  0  0  0
    1.2499   -3.6321   -2.0811 H   0  0  0  0  0  0  0  0  0  0  0  0
    2.5617   -3.7092   -0.9022 H   0  0  0  0  0  0  0  0  0  0  0  0
    2.6858   -2.6332   -2.3046 H   0  0  0  0  0  0  0  0  0  0  0  0
   -0.3863   -3.1380   -0.2279 H   0  0  0  0  0  0  0  0  0  0  0  0
   -0.1874   -1.7307    0.8206 H   0  0  0  0  0  0  0  0  0  0  0  0
    0.8751   -3.1289    0.9959 H   0  0  0  0  0  0  0  0  0  0  0  0
    1.2714   -0.1590   -1.9939 H   0  0  0  0  0  0  0  0  0  0  0  0
   -3.0930   -2.4346   -1.3200 H   0  0  0  0  0  0  0  0  0  0  0  0
   -5.2360   -0.6017    1.8328 H   0  0  0  0  0  0  0  0  0  0  0  0
   -4.2124    0.4275    2.6779 H   0  0  0  0  0  0  0  0  0  0  0  0
   -1.8245    2.8624    0.7746 H   0  0  0  0  0  0  0  0  0  0  0  0
   -3.5295    2.7533    1.2094 H   0  0  0  0  0  0  0  0  0  0  0  0
   -2.2842    2.0365    2.2717 H   0  0  0  0  0  0  0  0  0  0  0  0
   -0.9796    1.2680   -0.7734 H   0  0  0  0  0  0  0  0  0  0  0  0
  1  2  1  0
  2  3  1  0
  3  4  2  0
  4  5  1  0
  5  6  2  0
  6  7  1  0
  7  8  2  0
  8  9  1  0
  9 10  1  0
 10 11  1  0
 10 12  1  0
 10 13  1  0
 13 14  1  0
 14 15  2  0
 14 16  2  0
 14 17  1  0
 17 18  1  0
 18 19  2  0
 19 20  1  0
 20 21  1  0
 20 22  2  0
 22 23  1  0
 22 24  1  0
  8  3  1  0
 24 17  2  0
  1 25  1  0
  1 26  1  0
  1 27  1  0
  4 28  1  0
  5 29  1  0
  6 30  1  0
  7 31  1  0
  9 32  1  0
  9 33  1  0
 11 34  1  0
 11 35  1  0
 11 36  1  0
 12 37  1  0
 12 38  1  0
 12 39  1  0
 13 40  1  0
 18 41  1  0
 21 42  1  0
 21 43  1  0
 23 44  1  0
 23 45  1  0
 23 46  1  0
 24 47  1  0
M  END
$$$$
OCNT-2314169
     RDKit          3D

 48 52  0  0  0  0  0  0  0  0999 V2000
   -1.8790   -2.5349   -0.9495 O   0  0  0  0  0  0  0  0  0  0  0  0
   -2.0136   -1.4217   -0.4471 C   0  0  0  0  0  0  0  0  0  0  0  0
   -3.0777   -0.5384   -0.8753 C   0  0  0  0  0  0  0  0  0  0  0  0
   -3.9939    0.2156   -0.1681 C   0  0  0  0  0  0  0  0  0  0  0  0
   -4.3643    0.4354    1.2553 C   0  0  0  0  0  0  0  0  0  0  0  0
   -5.2886    1.6792    1.2858 C   0  0  0  0  0  0  0  0  0  0  0  0
   -6.0056    1.8492   -0.3788 S   0  0  0  0  0  0  0  0  0  0  0  0
   -5.7791    3.1714   -0.9152 O   0  0  0  0  0  0  0  0  0  0  0  0
   -7.2394    1.1072   -0.4958 O   0  0  0  0  0  0  0  0  0  0  0  0
   -4.8182    0.8589   -1.1051 C   0  0  0  0  0  0  0  0  0  0  0  0
   -4.4571    0.4955   -2.3696 C   0  0  0  0  0  0  0  0  0  0  0  0
   -3.4189   -0.3967   -2.2167 N   0  0  0  0  0  0  0  0  0  0  0  0
   -1.1427   -0.9428    0.5339 N   0  0  0  0  0  0  0  0  0  0  0  0
   -0.1246   -1.8674    1.0431 C   0  0  0  0  0  0  0  0  0  0  0  0
    1.2546   -1.6123    0.4045 C   0  0  0  0  0  0  0  0  0  0  0  0
    1.6312   -0.1715    0.4577 N   0  0  0  0  0  0  0  0  0  0  0  0
    3.0022    0.0344    0.7134 C   0  0  0  0  0  0  0  0  0  0  0  0
    3.4582    0.3736    1.9899 C   0  0  0  0  0  0  0  0  0  0  0  0
    4.8165    0.5106    2.2029 C   0  0  0  0  0  0  0  0  0  0  0  0
    5.7498    0.3375    1.2492 N   0  0  0  0  0  0  0  0  0  0  0  0
    5.3321    0.0253    0.0131 C   0  0  0  0  0  0  0  0  0  0  0  0
    6.2912   -0.1406   -0.9779 C   0  0  0  0  0  0  0  0  0  0  0  0
    5.9482   -0.4476   -2.2962 C   0  0  0  0  0  0  0  0  0  0  0  0
    4.6126   -0.5866   -2.6420 C   0  0  0  0  0  0  0  0  0  0  0  0
    3.6318   -0.4271   -1.6641 C   0  0  0  0  0  0  0  0  0  0  0  0
    3.9671   -0.1346   -0.3200 C   0  0  0  0  0  0  0  0  0  0  0  0
    0.6615    0.7167    1.1243 C   0  0  0  0  0  0  0  0  0  0  0  0
   -0.7474    0.4789    0.5393 C   0  0  0  0  0  0  0  0  0  0  0  0
   -3.5047    0.5782    1.9132 H   0  0  0  0  0  0  0  0  0  0  0  0
   -4.9193   -0.4387    1.6163 H   0  0  0  0  0  0  0  0  0  0  0  0
   -6.0903    1.5899    2.0218 H   0  0  0  0  0  0  0  0  0  0  0  0
   -4.7049    2.5866    1.4724 H   0  0  0  0  0  0  0  0  0  0  0  0
   -4.8485    0.7532   -3.3446 H   0  0  0  0  0  0  0  0  0  0  0  0
   -2.9541   -0.8931   -2.9679 H   0  0  0  0  0  0  0  0  0  0  0  0
   -0.4253   -2.9092    0.8897 H   0  0  0  0  0  0  0  0  0  0  0  0
   -0.0695   -1.7121    2.1275 H   0  0  0  0  0  0  0  0  0  0  0  0
    1.2192   -1.9186   -0.6471 H   0  0  0  0  0  0  0  0  0  0  0  0
    1.9947   -2.2440    0.9120 H   0  0  0  0  0  0  0  0  0  0  0  0
    2.7841    0.5037    2.8264 H   0  0  0  0  0  0  0  0  0  0  0  0
    5.2042    0.7639    3.1855 H   0  0  0  0  0  0  0  0  0  0  0  0
    7.3399   -0.0215   -0.7151 H   0  0  0  0  0  0  0  0  0  0  0  0
    6.7256   -0.5671   -3.0459 H   0  0  0  0  0  0  0  0  0  0  0  0
    4.3304   -0.8117   -3.6668 H   0  0  0  0  0  0  0  0  0  0  0  0
    2.5881   -0.5156   -1.9559 H   0  0  0  0  0  0  0  0  0  0  0  0
    0.9368    1.7669    0.9697 H   0  0  0  0  0  0  0  0  0  0  0  0
    0.6368    0.5289    2.2046 H   0  0  0  0  0  0  0  0  0  0  0  0
   -0.7702    0.8482   -0.4934 H   0  0  0  0  0  0  0  0  0  0  0  0
   -1.4801    1.0448    1.1192 H   0  0  0  0  0  0  0  0  0  0  0  0
  1  2  2  0
  2  3  1  0
  3  4  2  0
  4  5  1  0
  5  6  1  0
  6  7  1  0
  7  8  2  0
  7  9  2  0
  7 10  1  0
 10 11  2  0
 11 12  1  0
  2 13  1  0
 13 14  1  0
 14 15  1  0
 15 16  1  0
 16 17  1  0
 17 18  2  0
 18 19  1  0
 19 20  2  0
 20 21  1  0
 21 22  2  0
 22 23  1  0
 23 24  2  0
 24 25  1  0
 25 26  2  0
 16 27  1  0
 27 28  1  0
 12  3  1  0
 28 13  1  0
 10  4  1  0
 26 17  1  0
 26 21  1  0
  5 29  1  0
  5 30  1  0
  6 31  1  0
  6 32  1  0
 11 33  1  0
 12 34  1  0
 14 35  1  0
 14 36  1  0
 15 37  1  0
 15 38  1  0
 18 39  1  0
 19 40  1  0
 22 41  1  0
 23 42  1  0
 24 43  1  0
 25 44  1  0
 27 45  1  0
 27 46  1  0
 28 47  1  0
 28 48  1  0
M  END
$$$$
