OCNT-0018684


 21 22  0  0  0  0  0  0  0  0999 V2000
   -3.8679   24.5319    2.7575 O   0  0  0  0  0  0  0  0  0  0  0  0
   -4.7082   23.5004    2.4105 C   0  0  0  0  0  0  0  0  0  0  0  0
   -5.6380   23.6733    1.3624 C   0  0  0  0  0  0  0  0  0  0  0  0
   -5.7724   24.8793    0.6428 C   0  0  0  0  0  0  0  0  0  0  0  0
   -6.7134   25.0099   -0.3797 C   0  0  0  0  0  0  0  0  0  0  0  0
   -7.5376   23.9380   -0.7033 C   0  0  0  0  0  0  0  0  0  0  0  0
   -7.4192   22.7338   -0.0080 C   0  0  0  0  0  0  0  0  0  0  0  0
   -6.4756   22.5850    1.0219 C   0  0  0  0  0  0  0  0  0  0  0  0
   -6.3485   21.3688    1.7150 C   0  0  0  0  0  0  0  0  0  0  0  0
   -5.4009   21.2138    2.7280 C   0  0  0  0  0  0  0  0  0  0  0  0
   -4.5742   22.2778    3.0723 C   0  0  0  0  0  0  0  0  0  0  0  0
   -4.1273   24.9481    4.1119 C   0  0  0  0  0  0  0  0  0  0  0  0
   -4.5048   26.4325    4.0714 C   0  0  0  0  0  0  0  0  0  0  0  0
   -3.9172   27.0363    2.9040 O   0  0  0  0  0  0  0  0  0  0  0  0
   -4.2094   26.4859    2.1525 H   0  0  0  0  0  0  0  0  0  0  0  0
   -3.9953   27.1660    5.3242 C   0  0  0  0  0  0  0  0  0  0  0  0
   -4.6100   28.4970    5.4088 N   0  0  0  0  0  0  0  0  0  0  0  0
   -4.4967   28.8336    6.3698 H   0  0  0  0  0  0  0  0  0  0  0  0
   -6.2473   29.7371    4.1333 C   0  0  0  0  0  0  0  0  0  0  0  0
   -6.0225   28.5117    5.0219 C   0  0  0  0  0  0  0  0  0  0  0  0
   -6.9573   28.5745    6.2317 C   0  0  0  0  0  0  0  0  0  0  0  0
 19 20  1  0  0  0
 20 21  1  0  0  0
 20 17  1  0  0  0
 17 16  1  0  0  0
 16 13  1  0  0  0
 13 14  1  0  0  0
 13 12  1  0  0  0
 12  1  1  0  0  0
  1  2  1  0  0  0
  2  3  1  0  0  0
  3  4  2  0  0  0
  4  5  1  0  0  0
  5  6  2  0  0  0
  6  7  1  0  0  0
  7  8  2  0  0  0
  8  9  1  0  0  0
  9 10  2  0  0  0
 10 11  1  0  0  0
 11  2  2  0  0  0
  8  3  1  0  0  0
 17 18  1  0  0  0
 14 15  1  0  0  0
M  END
> <minimizedAffinity>
-8.01607

$$$$
OCNT-0020887


 14 14  0  0  0  0  0  0  0  0999 V2000
   -5.4448   24.5410    0.9264 C   0  0  0  0  0  0  0  0  0  0  0  0
   -5.8238   23.2344    1.2885 C   0  0  0  0  0  0  0  0  0  0  0  0
   -6.9364   22.6466    0.6762 C   0  0  0  0  0  0  0  0  0  0  0  0
   -7.6684   23.3440   -0.2883 C   0  0  0  0  0  0  0  0  0  0  0  0
   -7.2960   24.6340   -0.6503 C   0  0  0  0  0  0  0  0  0  0  0  0
   -6.1905   25.2295   -0.0472 C   0  0  0  0  0  0  0  0  0  0  0  0
   -5.0447   22.6226    2.2347 O   0  0  0  0  0  0  0  0  0  0  0  0
   -5.4301   21.3250    2.6665 C   0  0  0  0  0  0  0  0  0  0  0  0
   -4.2443   25.2328    1.5469 C   0  0  0  0  0  0  0  0  0  0  0  0
   -4.5556   25.9051    2.9059 C   0  0  0  0  0  0  0  0  0  0  0  0
   -5.7816   26.8231    2.7993 C   0  0  0  0  0  0  0  0  0  0  0  0
   -2.2865   25.9247    3.8126 C   0  0  0  0  0  0  0  0  0  0  0  0
   -3.4234   26.7292    3.3813 N   0  0  0  0  0  0  0  0  0  0  0  0
   -3.7317   27.2954    4.1720 H   0  0  0  0  0  0  0  0  0  0  0  0
 12 13  1  0  0  0
 13 10  1  0  0  0
 10 11  1  0  0  0
 10  9  1  0  0  0
  9  1  1  0  0  0
  1  2  1  0  0  0
  2  7  1  0  0  0
  7  8  1  0  0  0
  2  3  2  0  0  0
  3  4  1  0  0  0
  4  5  2  0  0  0
  5  6  1  0  0  0
  6  1  2  0  0  0
 13 14  1  0  0  0
M  END
> <minimizedAffinity>
-6.45026

$$$$
OCNT-0021749


 21 23  0  0  0  0  0  0  0  0999 V2000
   -2.3209   27.3710    7.6173 O   0  0  0  0  0  0  0  0  0  0  0  0
   -3.1786   28.5290    7.4890 S   0  0  0  0  0  0  0  0  0  0  0  0
   -3.9835   28.9994    8.5956 O   0  0  0  0  0  0  0  0  0  0  0  0
   -4.2376   28.2141    6.0840 C   0  0  0  0  0  0  0  0  0  0  0  0
   -5.4753   28.8824    6.0629 C   0  0  0  0  0  0  0  0  0  0  0  0
   -6.3780   28.6546    5.0320 C   0  0  0  0  0  0  0  0  0  0  0  0
   -6.0477   27.7656    4.0147 C   0  0  0  0  0  0  0  0  0  0  0  0
   -4.8038   27.1099    4.0045 C   0  0  0  0  0  0  0  0  0  0  0  0
   -4.4686   26.2353    2.9672 C   0  0  0  0  0  0  0  0  0  0  0  0
   -3.2946   25.5776    2.8592 N   0  0  0  0  0  0  0  0  0  0  0  0
   -2.3946   25.8083    3.8300 C   0  0  0  0  0  0  0  0  0  0  0  0
   -2.6205   26.6543    4.9067 C   0  0  0  0  0  0  0  0  0  0  0  0
   -3.8592   27.3269    5.0357 C   0  0  0  0  0  0  0  0  0  0  0  0
   -2.2274   29.8522    6.9878 N   0  0  0  0  0  0  0  0  0  0  0  0
   -2.8904   31.1649    6.8383 C   0  0  0  0  0  0  0  0  0  0  0  0
   -2.9336   31.9991    8.1150 C   0  0  0  0  0  0  0  0  0  0  0  0
   -1.5655   32.5322    8.5322 C   0  0  0  0  0  0  0  0  0  0  0  0
   -0.7353   31.6453    9.3381 N   0  0  0  0  0  0  0  0  0  0  0  0
   -0.7314   30.2239    8.9742 C   0  0  0  0  0  0  0  0  0  0  0  0
   -0.8253   29.8950    7.4774 C   0  0  0  0  0  0  0  0  0  0  0  0
   -1.0058   31.7206   10.3199 H   0  0  0  0  0  0  0  0  0  0  0  0
  1  2  2  0  0  0
  2  3  2  0  0  0
  2  4  1  0  0  0
  4  5  2  0  0  0
  5  6  1  0  0  0
  6  7  2  0  0  0
  7  8  1  0  0  0
  8  9  2  0  0  0
  9 10  1  0  0  0
 10 11  2  0  0  0
 11 12  1  0  0  0
 12 13  2  0  0  0
  2 14  1  0  0  0
 14 15  1  0  0  0
 15 16  1  0  0  0
 16 17  1  0  0  0
 17 18  1  0  0  0
 18 19  1  0  0  0
 19 20  1  0  0  0
 13  4  1  0  0  0
 20 14  1  0  0  0
 13  8  1  0  0  0
 18 21  1  0  0  0
M  END
> <minimizedAffinity>
-7.70059

$$$$
OCNT-0022006


 36 40  0  0  0  0  0  0  0  0999 V2000
   -4.6490   25.6727    4.0085 C   0  0  0  0  0  0  0  0  0  0  0  0
   -4.4230   25.0144    2.8103 C   0  0  0  0  0  0  0  0  0  0  0  0
   -2.7673   24.9796    2.4014 S   0  0  0  0  0  0  0  0  0  0  0  0
   -2.3124   25.8350    3.8256 C   0  0  0  0  0  0  0  0  0  0  0  0
   -1.0080   26.2044    4.2087 C   0  0  0  0  0  0  0  0  0  0  0  0
   -0.8333   26.8976    5.4055 C   0  0  0  0  0  0  0  0  0  0  0  0
    0.4421   27.2436    5.7499 O   0  0  0  0  0  0  0  0  0  0  0  0
   -1.9086   27.2242    6.2149 C   0  0  0  0  0  0  0  0  0  0  0  0
   -3.2020   26.8529    5.8289 C   0  0  0  0  0  0  0  0  0  0  0  0
   -3.4245   26.1481    4.6140 C   0  0  0  0  0  0  0  0  0  0  0  0
    0.4259   27.7009    6.6077 H   0  0  0  0  0  0  0  0  0  0  0  0
   -5.3902   24.4001    1.9024 C   0  0  0  0  0  0  0  0  0  0  0  0
   -5.7083   23.0405    2.0222 C   0  0  0  0  0  0  0  0  0  0  0  0
   -6.6180   22.4547    1.1389 C   0  0  0  0  0  0  0  0  0  0  0  0
   -7.2060   23.2261    0.1384 C   0  0  0  0  0  0  0  0  0  0  0  0
   -8.0885   22.6144   -0.7025 O   0  0  0  0  0  0  0  0  0  0  0  0
   -6.9031   24.5786    0.0068 C   0  0  0  0  0  0  0  0  0  0  0  0
   -5.9913   25.1647    0.8891 C   0  0  0  0  0  0  0  0  0  0  0  0
   -8.3973   23.2654   -1.3532 H   0  0  0  0  0  0  0  0  0  0  0  0
   -6.7910   24.9131    4.6088 O   0  0  0  0  0  0  0  0  0  0  0  0
   -5.9850   25.8441    4.5699 C   0  0  0  0  0  0  0  0  0  0  0  0
   -6.3563   27.1849    5.1198 C   0  0  0  0  0  0  0  0  0  0  0  0
   -6.9431   27.3492    6.3803 C   0  0  0  0  0  0  0  0  0  0  0  0
   -7.2702   28.6294    6.8391 C   0  0  0  0  0  0  0  0  0  0  0  0
   -7.0150   29.7587    6.0575 C   0  0  0  0  0  0  0  0  0  0  0  0
   -6.4242   29.5996    4.8049 C   0  0  0  0  0  0  0  0  0  0  0  0
   -6.0961   28.3199    4.3395 C   0  0  0  0  0  0  0  0  0  0  0  0
   -7.3862   30.9429    6.6299 O   0  0  0  0  0  0  0  0  0  0  0  0
   -6.8531   31.2389    7.9255 C   0  0  0  0  0  0  0  0  0  0  0  0
   -5.3860   31.6652    7.7464 C   0  0  0  0  0  0  0  0  0  0  0  0
   -4.4068   30.6391    8.1498 N   0  0  0  0  0  0  0  0  0  0  0  0
   -3.7878   30.8894    9.4606 C   0  0  0  0  0  0  0  0  0  0  0  0
   -2.7960   32.0559    9.4748 C   0  0  0  0  0  0  0  0  0  0  0  0
   -1.7313   31.8937    8.3952 C   0  0  0  0  0  0  0  0  0  0  0  0
   -2.3655   31.6111    7.0385 C   0  0  0  0  0  0  0  0  0  0  0  0
   -3.3657   30.4542    7.1238 C   0  0  0  0  0  0  0  0  0  0  0  0
 20 21  2  0  0  0
 21 22  1  0  0  0
 22 23  1  0  0  0
 23 24  2  0  0  0
 24 25  1  0  0  0
 25 28  1  0  0  0
 28 29  1  0  0  0
 29 30  1  0  0  0
 30 31  1  0  0  0
 31 32  1  0  0  0
 32 33  1  0  0  0
 33 34  1  0  0  0
 34 35  1  0  0  0
 35 36  1  0  0  0
 25 26  2  0  0  0
 26 27  1  0  0  0
 21  1  1  0  0  0
  1  2  2  0  0  0
  2 12  1  0  0  0
 12 13  1  0  0  0
 13 14  2  0  0  0
 14 15  1  0  0  0
 15 16  1  0  0  0
 15 17  2  0  0  0
 17 18  1  0  0  0
  2  3  1  0  0  0
  3  4  1  0  0  0
  4  5  2  0  0  0
  5  6  1  0  0  0
  6  7  1  0  0  0
  6  8  2  0  0  0
  8  9  1  0  0  0
  9 10  2  0  0  0
 27 22  2  0  0  0
 10  1  1  0  0  0
 36 31  1  0  0  0
 18 12  2  0  0  0
 10  4  1  0  0  0
 16 19  1  0  0  0
  7 11  1  0  0  0
M  END
> <minimizedAffinity>
-9.55883

$$$$
OCNT-0022012


 23 25  0  0  0  0  0  0  0  0999 V2000
   -3.3751   30.7915    5.8296 O   0  0  0  0  0  0  0  0  0  0  0  0
   -3.2262   30.6879    7.2783 C   0  0  0  0  0  0  0  0  0  0  0  0
   -4.3258   30.7506    5.6302 H   0  0  0  0  0  0  0  0  0  0  0  0
   -3.7631   31.9913    7.8938 C   0  0  0  0  0  0  0  0  0  0  0  0
   -3.5825   32.2918    9.2594 C   0  0  0  0  0  0  0  0  0  0  0  0
   -4.0772   33.4715    9.8263 C   0  0  0  0  0  0  0  0  0  0  0  0
   -4.7754   34.3823    9.0441 C   0  0  0  0  0  0  0  0  0  0  0  0
   -4.9848   34.1080    7.6985 C   0  0  0  0  0  0  0  0  0  0  0  0
   -4.4895   32.9265    7.1350 C   0  0  0  0  0  0  0  0  0  0  0  0
   -1.6694   30.4770    7.4271 C   0  0  0  0  0  0  0  0  0  0  0  0
   -1.2678   30.0717    8.8676 C   0  0  0  0  0  0  0  0  0  0  0  0
    0.2476   30.0217    9.0515 C   0  0  0  0  0  0  0  0  0  0  0  0
    0.9038   29.0999    8.0320 C   0  0  0  0  0  0  0  0  0  0  0  0
    0.5345   29.5005    6.6100 C   0  0  0  0  0  0  0  0  0  0  0  0
   -0.9816   29.5557    6.4063 C   0  0  0  0  0  0  0  0  0  0  0  0
   -4.0646   29.4165    7.6311 C   0  0  0  0  0  0  0  0  0  0  0  0
   -5.4504   29.2393    6.9939 C   0  0  0  0  0  0  0  0  0  0  0  0
   -5.3740   28.8284    5.5789 N   0  0  0  0  0  0  0  0  0  0  0  0
   -5.4299   27.3646    5.4110 C   0  0  0  0  0  0  0  0  0  0  0  0
   -6.0047   26.9034    4.0641 C   0  0  0  0  0  0  0  0  0  0  0  0
   -5.6458   27.8728    2.9491 C   0  0  0  0  0  0  0  0  0  0  0  0
   -6.1252   29.2873    3.2781 C   0  0  0  0  0  0  0  0  0  0  0  0
   -6.3930   29.5045    4.7719 C   0  0  0  0  0  0  0  0  0  0  0  0
  1  2  1  0  0  0
  2 16  1  0  0  0
 16 17  1  0  0  0
 17 18  1  0  0  0
 18 19  1  0  0  0
 19 20  1  0  0  0
 20 21  1  0  0  0
 21 22  1  0  0  0
 22 23  1  0  0  0
  2  4  1  0  0  0
  4  5  2  0  0  0
  5  6  1  0  0  0
  6  7  2  0  0  0
  7  8  1  0  0  0
  8  9  2  0  0  0
  2 10  1  0  0  0
 10 11  1  0  0  0
 11 12  1  0  0  0
 12 13  1  0  0  0
 13 14  1  0  0  0
 14 15  1  0  0  0
 23 18  1  0  0  0
  9  4  1  0  0  0
 15 10  1  0  0  0
  1  3  1  0  0  0
M  END
> <minimizedAffinity>
-9.41681

$$$$
OCNT-0022107


 33 36  0  0  0  0  0  0  0  0999 V2000
   -3.9811   32.3528    9.0495 C   0  0  0  0  0  0  0  0  0  0  0  0
   -2.6931   32.2141    8.9072 N   0  0  0  0  0  0  0  0  0  0  0  0
   -2.5228   30.8627    8.7435 N   0  0  0  0  0  0  0  0  0  0  0  0
   -3.7481   30.2061    8.8319 C   0  0  0  0  0  0  0  0  0  0  0  0
   -3.9613   29.0068    8.7624 O   0  0  0  0  0  0  0  0  0  0  0  0
   -4.6778   31.2013    9.0276 N   0  0  0  0  0  0  0  0  0  0  0  0
   -5.0009   34.3220    7.9300 C   0  0  0  0  0  0  0  0  0  0  0  0
   -4.6156   33.6975    9.2580 C   0  0  0  0  0  0  0  0  0  0  0  0
   -1.2208   30.2460    8.6329 C   0  0  0  0  0  0  0  0  0  0  0  0
   -0.9504   29.7579    7.2140 C   0  0  0  0  0  0  0  0  0  0  0  0
    0.1718   28.7183    7.1027 C   0  0  0  0  0  0  0  0  0  0  0  0
   -0.3178   27.3978    6.6920 N   0  0  0  0  0  0  0  0  0  0  0  0
   -0.1054   27.1707    5.2471 C   0  0  0  0  0  0  0  0  0  0  0  0
   -0.9103   25.9795    4.6810 C   0  0  0  0  0  0  0  0  0  0  0  0
   -2.3562   26.2083    4.8338 N   0  0  0  0  0  0  0  0  0  0  0  0
   -2.7595   27.1282    5.9091 C   0  0  0  0  0  0  0  0  0  0  0  0
   -1.7269   27.1392    7.0649 C   0  0  0  0  0  0  0  0  0  0  0  0
   -3.2814   25.5911    4.0089 C   0  0  0  0  0  0  0  0  0  0  0  0
   -3.3504   25.8735    2.6324 C   0  0  0  0  0  0  0  0  0  0  0  0
   -4.2806   25.2545    1.7878 C   0  0  0  0  0  0  0  0  0  0  0  0
   -5.1755   24.3262    2.3038 C   0  0  0  0  0  0  0  0  0  0  0  0
   -5.1319   24.0277    3.6594 C   0  0  0  0  0  0  0  0  0  0  0  0
   -6.2406   22.8833    4.3118 Cl  0  0  0  0  0  0  0  0  0  0  0  0
   -4.2014   24.6499    4.4987 C   0  0  0  0  0  0  0  0  0  0  0  0
   -6.1035   30.9429    9.1362 C   0  0  0  0  0  0  0  0  0  0  0  0
   -6.7733   30.7162    7.7768 C   0  0  0  0  0  0  0  0  0  0  0  0
   -6.8357   29.3231    7.4592 O   0  0  0  0  0  0  0  0  0  0  0  0
   -6.5851   28.9317    6.1754 C   0  0  0  0  0  0  0  0  0  0  0  0
   -6.3471   29.9804    5.2825 C   0  0  0  0  0  0  0  0  0  0  0  0
   -6.0779   29.7228    3.9376 C   0  0  0  0  0  0  0  0  0  0  0  0
   -6.0352   28.4089    3.4787 C   0  0  0  0  0  0  0  0  0  0  0  0
   -6.2545   27.3576    4.3670 C   0  0  0  0  0  0  0  0  0  0  0  0
   -6.5243   27.6172    5.7149 C   0  0  0  0  0  0  0  0  0  0  0  0
  7  8  1  0  0  0
  8  1  1  0  0  0
  1  2  2  0  0  0
  2  3  1  0  0  0
  3  9  1  0  0  0
  9 10  1  0  0  0
 10 11  1  0  0  0
 11 12  1  0  0  0
 12 13  1  0  0  0
 13 14  1  0  0  0
 14 15  1  0  0  0
 15 18  1  0  0  0
 18 19  2  0  0  0
 19 20  1  0  0  0
 20 21  2  0  0  0
 21 22  1  0  0  0
 22 23  1  0  0  0
 22 24  2  0  0  0
 15 16  1  0  0  0
 16 17  1  0  0  0
  3  4  1  0  0  0
  4  5  2  0  0  0
  4  6  1  0  0  0
  6 25  1  0  0  0
 25 26  1  0  0  0
 26 27  1  0  0  0
 27 28  1  0  0  0
 28 29  2  0  0  0
 29 30  1  0  0  0
 30 31  2  0  0  0
 31 32  1  0  0  0
 32 33  2  0  0  0
  6  1  1  0  0  0
 33 28  1  0  0  0
 17 12  1  0  0  0
 24 18  1  0  0  0
M  END
> <minimizedAffinity>
-9.33492

$$$$
OCNT-0022119


 28 31  0  0  0  0  0  0  0  0999 V2000
   -3.4663   29.0295    7.2818 N   0  0  0  0  0  0  0  0  0  0  0  0
   -2.6205   28.0888    6.6331 C   0  0  0  0  0  0  0  0  0  0  0  0
   -1.2716   27.9238    7.0042 C   0  0  0  0  0  0  0  0  0  0  0  0
   -0.4542   26.9909    6.3414 C   0  0  0  0  0  0  0  0  0  0  0  0
   -0.9506   26.2293    5.2873 C   0  0  0  0  0  0  0  0  0  0  0  0
   -2.2655   26.4030    4.8817 C   0  0  0  0  0  0  0  0  0  0  0  0
   -3.0835   27.3261    5.5413 C   0  0  0  0  0  0  0  0  0  0  0  0
   -0.5243   28.8291    8.3441 S   0  0  0  0  0  0  0  0  0  0  0  0
   -1.6813   30.1653    8.5618 C   0  0  0  0  0  0  0  0  0  0  0  0
   -1.2361   31.2653    9.3163 C   0  0  0  0  0  0  0  0  0  0  0  0
   -2.0779   32.3465    9.5639 C   0  0  0  0  0  0  0  0  0  0  0  0
   -3.3670   32.3310    9.0519 C   0  0  0  0  0  0  0  0  0  0  0  0
   -4.4130   33.6685    9.3342 Cl  0  0  0  0  0  0  0  0  0  0  0  0
   -3.8212   31.2420    8.3050 C   0  0  0  0  0  0  0  0  0  0  0  0
   -2.9970   30.1256    8.0558 C   0  0  0  0  0  0  0  0  0  0  0  0
   -4.8566   28.5764    7.5573 C   0  0  0  0  0  0  0  0  0  0  0  0
   -5.8768   29.0581    6.5121 C   0  0  0  0  0  0  0  0  0  0  0  0
   -6.7262   27.9420    5.8923 C   0  0  0  0  0  0  0  0  0  0  0  0
   -5.8044   25.1748    2.6940 N   0  0  0  0  0  0  0  0  0  0  0  0
   -5.7033   24.7378    4.1052 C   0  0  0  0  0  0  0  0  0  0  0  0
   -6.4530   25.6852    5.0695 C   0  0  0  0  0  0  0  0  0  0  0  0
   -5.9742   27.0790    4.9690 N   0  0  0  0  0  0  0  0  0  0  0  0
   -6.0848   27.5222    3.5664 C   0  0  0  0  0  0  0  0  0  0  0  0
   -5.3353   26.5753    2.5999 C   0  0  0  0  0  0  0  0  0  0  0  0
   -5.0015   24.3143    1.7962 C   0  0  0  0  0  0  0  0  0  0  0  0
   -7.2110   23.6459    1.0551 O   0  0  0  0  0  0  0  0  0  0  0  0
   -5.8529   23.2174    1.1390 C   0  0  0  0  0  0  0  0  0  0  0  0
   -7.3451   24.1973    1.8535 H   0  0  0  0  0  0  0  0  0  0  0  0
 26 27  1  0  0  0
 27 25  1  0  0  0
 25 19  1  0  0  0
 19 20  1  0  0  0
 20 21  1  0  0  0
 21 22  1  0  0  0
 22 18  1  0  0  0
 18 17  1  0  0  0
 17 16  1  0  0  0
 16  1  1  0  0  0
  1  2  1  0  0  0
  2  3  1  0  0  0
  3  4  2  0  0  0
  4  5  1  0  0  0
  5  6  2  0  0  0
  6  7  1  0  0  0
  3  8  1  0  0  0
  8  9  1  0  0  0
  9 10  1  0  0  0
 10 11  2  0  0  0
 11 12  1  0  0  0
 12 13  1  0  0  0
 12 14  2  0  0  0
 14 15  1  0  0  0
 22 23  1  0  0  0
 23 24  1  0  0  0
 24 19  1  0  0  0
 15  1  1  0  0  0
  7  2  2  0  0  0
 15  9  2  0  0  0
 26 28  1  0  0  0
M  END
> <minimizedAffinity>
-8.64056

$$$$
OCNT-0022126


 31 34  0  0  0  0  0  0  0  0999 V2000
   -2.4975   26.8526    5.7495 N   0  0  0  0  0  0  0  0  0  0  0  0
   -3.8934   26.7082    5.3052 C   0  0  0  0  0  0  0  0  0  0  0  0
   -4.0601   26.7554    3.7869 C   0  0  0  0  0  0  0  0  0  0  0  0
   -3.2424   25.6542    3.0878 C   0  0  0  0  0  0  0  0  0  0  0  0
   -2.0286   25.2244    3.9286 C   0  0  0  0  0  0  0  0  0  0  0  0
   -1.5123   26.3954    4.7589 C   0  0  0  0  0  0  0  0  0  0  0  0
   -4.0759   24.4728    2.6803 C   0  0  0  0  0  0  0  0  0  0  0  0
   -3.8741   23.2685    3.2358 N   0  0  0  0  0  0  0  0  0  0  0  0
   -4.7880   22.4171    2.6404 O   0  0  0  0  0  0  0  0  0  0  0  0
   -5.5335   23.1071    1.7383 C   0  0  0  0  0  0  0  0  0  0  0  0
   -5.1229   24.4295    1.7202 C   0  0  0  0  0  0  0  0  0  0  0  0
   -5.7666   25.3273    0.8489 C   0  0  0  0  0  0  0  0  0  0  0  0
   -6.8003   24.8375    0.0375 C   0  0  0  0  0  0  0  0  0  0  0  0
   -7.1745   23.4953    0.0956 C   0  0  0  0  0  0  0  0  0  0  0  0
   -8.1676   23.0665   -0.6951 F   0  0  0  0  0  0  0  0  0  0  0  0
   -6.5520   22.5863    0.9480 C   0  0  0  0  0  0  0  0  0  0  0  0
   -2.1639   28.1956    6.2387 C   0  0  0  0  0  0  0  0  0  0  0  0
   -0.7165   28.3553    6.7158 C   0  0  0  0  0  0  0  0  0  0  0  0
   -0.6132   28.9008    8.1391 C   0  0  0  0  0  0  0  0  0  0  0  0
   -1.9166   29.0632    8.7007 O   0  0  0  0  0  0  0  0  0  0  0  0
   -3.9195   30.3002    8.8150 C   0  0  0  0  0  0  0  0  0  0  0  0
   -2.5149   30.2969    8.6915 C   0  0  0  0  0  0  0  0  0  0  0  0
   -1.8354   31.5108    8.5525 C   0  0  0  0  0  0  0  0  0  0  0  0
   -2.5357   32.7221    8.5433 C   0  0  0  0  0  0  0  0  0  0  0  0
   -3.9269   32.7302    8.6702 C   0  0  0  0  0  0  0  0  0  0  0  0
   -4.6139   31.5155    8.8045 C   0  0  0  0  0  0  0  0  0  0  0  0
   -4.7194   33.9966    8.6603 C   0  0  0  0  0  0  0  0  0  0  0  0
   -4.6932   34.8857    9.8758 C   0  0  0  0  0  0  0  0  0  0  0  0
   -5.3765   34.3000    7.6666 O   0  0  0  0  0  0  0  0  0  0  0  0
   -5.7447   28.9986    9.6495 C   0  0  0  0  0  0  0  0  0  0  0  0
   -4.5162   29.0690    8.9391 O   0  0  0  0  0  0  0  0  0  0  0  0
 30 31  1  0  0  0
 31 21  1  0  0  0
 21 22  2  0  0  0
 22 20  1  0  0  0
 20 19  1  0  0  0
 19 18  1  0  0  0
 18 17  1  0  0  0
 17  1  1  0  0  0
  1  2  1  0  0  0
  2  3  1  0  0  0
  3  4  1  0  0  0
  4  7  1  0  0  0
  7  8  2  0  0  0
  8  9  1  0  0  0
  9 10  1  0  0  0
 10 11  1  0  0  0
 11 12  2  0  0  0
 12 13  1  0  0  0
 13 14  2  0  0  0
 14 15  1  0  0  0
 14 16  1  0  0  0
  4  5  1  0  0  0
  5  6  1  0  0  0
 22 23  1  0  0  0
 23 24  2  0  0  0
 24 25  1  0  0  0
 25 27  1  0  0  0
 27 28  1  0  0  0
 27 29  2  0  0  0
 25 26  2  0  0  0
 26 21  1  0  0  0
  6  1  1  0  0  0
 11  7  1  0  0  0
 16 10  2  0  0  0
M  END
> <minimizedAffinity>
-9.66490

$$$$
OCNT-0022127


 27 29  0  0  0  0  0  0  0  0999 V2000
   -2.8679   26.6816    5.9087 N   0  0  0  0  0  0  0  0  0  0  0  0
   -4.0118   27.5628    5.6043 C   0  0  0  0  0  0  0  0  0  0  0  0
   -4.8622   27.0509    4.4275 C   0  0  0  0  0  0  0  0  0  0  0  0
   -4.6096   25.5588    4.1384 C   0  0  0  0  0  0  0  0  0  0  0  0
   -4.9496   24.8406    5.3431 O   0  0  0  0  0  0  0  0  0  0  0  0
   -3.1097   25.3249    3.8564 C   0  0  0  0  0  0  0  0  0  0  0  0
   -2.2104   26.2795    4.6550 C   0  0  0  0  0  0  0  0  0  0  0  0
   -4.2917   25.1360    6.0028 H   0  0  0  0  0  0  0  0  0  0  0  0
   -5.4456   24.9893    2.9911 C   0  0  0  0  0  0  0  0  0  0  0  0
   -6.2613   23.8586    3.1935 C   0  0  0  0  0  0  0  0  0  0  0  0
   -7.0008   23.2980    2.1473 C   0  0  0  0  0  0  0  0  0  0  0  0
   -6.9306   23.8567    0.8752 C   0  0  0  0  0  0  0  0  0  0  0  0
   -7.8318   23.1653   -0.4185 Cl  0  0  0  0  0  0  0  0  0  0  0  0
   -6.1270   24.9689    0.6427 C   0  0  0  0  0  0  0  0  0  0  0  0
   -5.3868   25.5276    1.6916 C   0  0  0  0  0  0  0  0  0  0  0  0
   -1.9281   27.3544    6.8240 C   0  0  0  0  0  0  0  0  0  0  0  0
   -0.4855   27.2968    6.2946 C   0  0  0  0  0  0  0  0  0  0  0  0
    0.1651   28.6809    6.1781 C   0  0  0  0  0  0  0  0  0  0  0  0
    1.1893   29.0547    8.3241 O   0  0  0  0  0  0  0  0  0  0  0  0
    0.3000   29.3608    7.5310 C   0  0  0  0  0  0  0  0  0  0  0  0
   -0.6812   30.4167    7.9240 C   0  0  0  0  0  0  0  0  0  0  0  0
   -0.7382   30.9467    9.2208 C   0  0  0  0  0  0  0  0  0  0  0  0
   -1.6810   31.9331    9.5321 C   0  0  0  0  0  0  0  0  0  0  0  0
   -2.5552   32.3896    8.5495 C   0  0  0  0  0  0  0  0  0  0  0  0
   -3.4537   33.3361    8.8535 F   0  0  0  0  0  0  0  0  0  0  0  0
   -2.5050   31.8831    7.2558 C   0  0  0  0  0  0  0  0  0  0  0  0
   -1.5653   30.8983    6.9403 C   0  0  0  0  0  0  0  0  0  0  0  0
 19 20  2  0  0  0
 20 18  1  0  0  0
 18 17  1  0  0  0
 17 16  1  0  0  0
 16  1  1  0  0  0
  1  2  1  0  0  0
  2  3  1  0  0  0
  3  4  1  0  0  0
  4  5  1  0  0  0
  4  9  1  0  0  0
  9 10  1  0  0  0
 10 11  2  0  0  0
 11 12  1  0  0  0
 12 13  1  0  0  0
 12 14  2  0  0  0
 14 15  1  0  0  0
  4  6  1  0  0  0
  6  7  1  0  0  0
 20 21  1  0  0  0
 21 22  1  0  0  0
 22 23  2  0  0  0
 23 24  1  0  0  0
 24 25  1  0  0  0
 24 26  2  0  0  0
 26 27  1  0  0  0
  7  1  1  0  0  0
 27 21  2  0  0  0
 15  9  2  0  0  0
  5  8  1  0  0  0
M  END
> <minimizedAffinity>
-10.12872

$$$$
OCNT-0022128


 31 34  0  0  0  0  0  0  0  0999 V2000
   -5.4241   32.0122    9.0217 C   0  0  0  0  0  0  0  0  0  0  0  0
   -6.6145   31.3116    8.3612 C   0  0  0  0  0  0  0  0  0  0  0  0
   -6.2343   30.0685    7.5578 C   0  0  0  0  0  0  0  0  0  0  0  0
   -6.9351   30.0467    6.3124 O   0  0  0  0  0  0  0  0  0  0  0  0
   -5.8004   23.2546    5.0660 O   0  0  0  0  0  0  0  0  0  0  0  0
   -5.9031   24.3839    4.5922 C   0  0  0  0  0  0  0  0  0  0  0  0
   -5.9554   24.6330    3.1018 C   0  0  0  0  0  0  0  0  0  0  0  0
   -5.3233   25.9625    2.7230 C   0  0  0  0  0  0  0  0  0  0  0  0
   -5.8189   27.0721    3.6068 C   0  0  0  0  0  0  0  0  0  0  0  0
   -6.1451   26.7927    4.9361 C   0  0  0  0  0  0  0  0  0  0  0  0
   -6.5032   27.8188    5.8094 C   0  0  0  0  0  0  0  0  0  0  0  0
   -6.5544   29.1418    5.3599 C   0  0  0  0  0  0  0  0  0  0  0  0
   -6.2397   29.4237    4.0294 C   0  0  0  0  0  0  0  0  0  0  0  0
   -5.8634   28.3949    3.1584 C   0  0  0  0  0  0  0  0  0  0  0  0
   -6.0864   25.4745    5.3997 N   0  0  0  0  0  0  0  0  0  0  0  0
   -6.1838   25.2806    6.3886 H   0  0  0  0  0  0  0  0  0  0  0  0
   -4.2439   32.2120    8.0594 C   0  0  0  0  0  0  0  0  0  0  0  0
   -2.9435   31.9765    8.7074 N   0  0  0  0  0  0  0  0  0  0  0  0
   -2.9165   30.6489    9.3760 C   0  0  0  0  0  0  0  0  0  0  0  0
   -2.9122   29.4315    8.4190 C   0  0  0  0  0  0  0  0  0  0  0  0
   -1.8107   29.5492    7.4448 N   0  0  0  0  0  0  0  0  0  0  0  0
   -1.7448   30.8448    6.7400 C   0  0  0  0  0  0  0  0  0  0  0  0
   -1.8056   32.0166    7.7527 C   0  0  0  0  0  0  0  0  0  0  0  0
   -1.6128   28.4198    6.6282 C   0  0  0  0  0  0  0  0  0  0  0  0
   -0.4586   28.1093    5.8681 C   0  0  0  0  0  0  0  0  0  0  0  0
    0.9315   29.1592    5.8684 Cl  0  0  0  0  0  0  0  0  0  0  0  0
   -0.4263   26.9312    5.0946 C   0  0  0  0  0  0  0  0  0  0  0  0
    0.9450   26.4814    4.1334 Cl  0  0  0  0  0  0  0  0  0  0  0  0
   -1.5219   26.0634    5.0679 C   0  0  0  0  0  0  0  0  0  0  0  0
   -2.6572   26.3565    5.8154 C   0  0  0  0  0  0  0  0  0  0  0  0
   -2.6968   27.5200    6.5825 C   0  0  0  0  0  0  0  0  0  0  0  0
  5  6  2  0  0  0
  6  7  1  0  0  0
  7  8  1  0  0  0
  8  9  1  0  0  0
  9 10  2  0  0  0
 10 11  1  0  0  0
 11 12  2  0  0  0
 12  4  1  0  0  0
  4  3  1  0  0  0
  3  2  1  0  0  0
  2  1  1  0  0  0
  1 17  1  0  0  0
 17 18  1  0  0  0
 18 19  1  0  0  0
 19 20  1  0  0  0
 20 21  1  0  0  0
 21 24  1  0  0  0
 24 25  1  0  0  0
 25 26  1  0  0  0
 25 27  2  0  0  0
 27 28  1  0  0  0
 27 29  1  0  0  0
 29 30  2  0  0  0
 30 31  1  0  0  0
 21 22  1  0  0  0
 22 23  1  0  0  0
 12 13  1  0  0  0
 13 14  2  0  0  0
 10 15  1  0  0  0
 15  6  1  0  0  0
 14  9  1  0  0  0
 23 18  1  0  0  0
 31 24  2  0  0  0
 15 16  1  0  0  0
M  END
> <minimizedAffinity>
-9.81477

$$$$
OCNT-0022137


 30 34  0  0  0  0  0  0  0  0999 V2000
   -5.3878   27.7051    5.1341 N   0  0  0  0  0  0  0  0  0  0  0  0
   -6.1477   27.4287    3.9029 C   0  0  0  0  0  0  0  0  0  0  0  0
   -5.2147   27.3387    2.6959 C   0  0  0  0  0  0  0  0  0  0  0  0
   -4.1040   26.2987    2.8787 C   0  0  0  0  0  0  0  0  0  0  0  0
   -3.4487   26.4312    4.2594 C   0  0  0  0  0  0  0  0  0  0  0  0
   -4.4537   26.5977    5.4023 C   0  0  0  0  0  0  0  0  0  0  0  0
   -4.5628   24.9017    2.5545 C   0  0  0  0  0  0  0  0  0  0  0  0
   -4.0543   23.8340    3.1860 N   0  0  0  0  0  0  0  0  0  0  0  0
   -4.6934   22.7303    2.6513 O   0  0  0  0  0  0  0  0  0  0  0  0
   -5.5850   23.1321    1.7095 C   0  0  0  0  0  0  0  0  0  0  0  0
   -5.5486   24.5123    1.6047 C   0  0  0  0  0  0  0  0  0  0  0  0
   -6.4038   25.1443    0.6831 C   0  0  0  0  0  0  0  0  0  0  0  0
   -7.2545   24.3414   -0.0901 C   0  0  0  0  0  0  0  0  0  0  0  0
   -7.2492   22.9543    0.0543 C   0  0  0  0  0  0  0  0  0  0  0  0
   -8.0768   22.2220   -0.7034 F   0  0  0  0  0  0  0  0  0  0  0  0
   -6.4136   22.3047    0.9598 C   0  0  0  0  0  0  0  0  0  0  0  0
   -6.3278   27.8984    6.2603 C   0  0  0  0  0  0  0  0  0  0  0  0
   -6.5681   29.3806    6.5969 C   0  0  0  0  0  0  0  0  0  0  0  0
   -6.5718   28.9904    9.6440 C   0  0  0  0  0  0  0  0  0  0  0  0
   -5.5276   29.7775    8.8927 C   0  0  0  0  0  0  0  0  0  0  0  0
   -5.5267   29.9102    7.5522 C   0  0  0  0  0  0  0  0  0  0  0  0
   -4.4140   30.6887    6.9390 C   0  0  0  0  0  0  0  0  0  0  0  0
   -4.3872   30.8892    5.7267 O   0  0  0  0  0  0  0  0  0  0  0  0
   -3.4533   31.1457    7.8113 N   0  0  0  0  0  0  0  0  0  0  0  0
   -2.3405   31.9431    7.3218 C   0  0  0  0  0  0  0  0  0  0  0  0
   -1.0245   31.5093    7.9624 C   0  0  0  0  0  0  0  0  0  0  0  0
   -1.1418   31.2504    9.4680 C   0  0  0  0  0  0  0  0  0  0  0  0
   -2.5185   31.5855   10.0271 C   0  0  0  0  0  0  0  0  0  0  0  0
   -3.5945   30.9648    9.1654 C   0  0  0  0  0  0  0  0  0  0  0  0
   -4.5708   30.3227    9.7142 N   0  0  0  0  0  0  0  0  0  0  0  0
 19 20  1  0  0  0
 20 21  2  0  0  0
 21 18  1  0  0  0
 18 17  1  0  0  0
 17  1  1  0  0  0
  1  2  1  0  0  0
  2  3  1  0  0  0
  3  4  1  0  0  0
  4  7  1  0  0  0
  7  8  2  0  0  0
  8  9  1  0  0  0
  9 10  1  0  0  0
 10 11  1  0  0  0
 11 12  2  0  0  0
 12 13  1  0  0  0
 13 14  2  0  0  0
 14 15  1  0  0  0
 14 16  1  0  0  0
  4  5  1  0  0  0
  5  6  1  0  0  0
 21 22  1  0  0  0
 22 23  2  0  0  0
 22 24  1  0  0  0
 24 25  1  0  0  0
 25 26  1  0  0  0
 26 27  1  0  0  0
 27 28  1  0  0  0
 28 29  1  0  0  0
 29 30  2  0  0  0
 30 20  1  0  0  0
  6  1  1  0  0  0
 29 24  1  0  0  0
 11  7  1  0  0  0
 16 10  2  0  0  0
M  END
> <minimizedAffinity>
-10.72072

$$$$
OCNT-0022139


 23 26  0  0  0  0  0  0  0  0999 V2000
   -5.8108   25.0758    3.8707 C   0  0  0  0  0  0  0  0  0  0  0  0
   -5.6401   25.3147    2.5985 N   0  0  0  0  0  0  0  0  0  0  0  0
   -6.1741   24.5224    1.5725 C   0  0  0  0  0  0  0  0  0  0  0  0
   -6.5835   25.1742    0.4041 C   0  0  0  0  0  0  0  0  0  0  0  0
   -7.0433   24.4544   -0.7027 C   0  0  0  0  0  0  0  0  0  0  0  0
   -7.0822   23.0624   -0.6612 C   0  0  0  0  0  0  0  0  0  0  0  0
   -6.6692   22.3933    0.4891 C   0  0  0  0  0  0  0  0  0  0  0  0
   -6.2323   23.1230    1.5997 C   0  0  0  0  0  0  0  0  0  0  0  0
   -5.8478   22.4006    2.7063 O   0  0  0  0  0  0  0  0  0  0  0  0
   -6.6075   22.6815    3.8138 C   0  0  0  0  0  0  0  0  0  0  0  0
   -7.3349   21.6251    4.3696 C   0  0  0  0  0  0  0  0  0  0  0  0
   -8.1493   21.8504    5.4800 C   0  0  0  0  0  0  0  0  0  0  0  0
   -8.2296   23.1294    6.0294 C   0  0  0  0  0  0  0  0  0  0  0  0
   -9.2411   23.4096    7.3926 Cl  0  0  0  0  0  0  0  0  0  0  0  0
   -7.4897   24.1805    5.4915 C   0  0  0  0  0  0  0  0  0  0  0  0
   -6.6550   23.9521    4.3894 C   0  0  0  0  0  0  0  0  0  0  0  0
   -3.0025   28.1497    7.4166 C   0  0  0  0  0  0  0  0  0  0  0  0
   -3.5195   28.0903    6.0527 N   0  0  0  0  0  0  0  0  0  0  0  0
   -4.9994   28.0614    6.0547 C   0  0  0  0  0  0  0  0  0  0  0  0
   -5.6071   27.3525    4.8276 C   0  0  0  0  0  0  0  0  0  0  0  0
   -5.2009   25.9311    4.7952 N   0  0  0  0  0  0  0  0  0  0  0  0
   -3.8316   25.6742    5.2910 C   0  0  0  0  0  0  0  0  0  0  0  0
   -2.9626   26.9511    5.2959 C   0  0  0  0  0  0  0  0  0  0  0  0
 17 18  1  0  0  0
 18 19  1  0  0  0
 19 20  1  0  0  0
 20 21  1  0  0  0
 21  1  1  0  0  0
  1  2  2  0  0  0
  2  3  1  0  0  0
  3  4  2  0  0  0
  4  5  1  0  0  0
  5  6  2  0  0  0
  6  7  1  0  0  0
  7  8  2  0  0  0
  8  9  1  0  0  0
  9 10  1  0  0  0
 10 11  1  0  0  0
 11 12  2  0  0  0
 12 13  1  0  0  0
 13 14  1  0  0  0
 13 15  2  0  0  0
 15 16  1  0  0  0
 21 22  1  0  0  0
 22 23  1  0  0  0
 23 18  1  0  0  0
 16  1  1  0  0  0
  8  3  1  0  0  0
 16 10  2  0  0  0
M  END
> <minimizedAffinity>
-8.80414

$$$$
OCNT-0022141


 25 28  0  0  0  0  0  0  0  0999 V2000
   -1.2314   26.5436    5.3118 C   0  0  0  0  0  0  0  0  0  0  0  0
   -0.6662   27.1307    6.4402 C   0  0  0  0  0  0  0  0  0  0  0  0
   -1.4557   27.9043    7.2920 C   0  0  0  0  0  0  0  0  0  0  0  0
   -2.8213   28.0983    7.0310 C   0  0  0  0  0  0  0  0  0  0  0  0
   -3.7347   29.0637    8.2154 S   0  0  0  0  0  0  0  0  0  0  0  0
   -5.2309   29.4193    7.3168 C   0  0  0  0  0  0  0  0  0  0  0  0
   -5.6097   28.7151    6.1589 C   0  0  0  0  0  0  0  0  0  0  0  0
   -6.8099   29.0980    5.5272 C   0  0  0  0  0  0  0  0  0  0  0  0
   -7.6261   30.1067    6.0468 C   0  0  0  0  0  0  0  0  0  0  0  0
   -7.2530   30.7692    7.2080 C   0  0  0  0  0  0  0  0  0  0  0  0
   -6.0585   30.4290    7.8379 C   0  0  0  0  0  0  0  0  0  0  0  0
   -4.7972   27.6928    5.5942 N   0  0  0  0  0  0  0  0  0  0  0  0
   -3.4180   27.5088    5.9022 C   0  0  0  0  0  0  0  0  0  0  0  0
   -2.5897   26.7560    5.0422 C   0  0  0  0  0  0  0  0  0  0  0  0
    0.9635   26.7852    3.6400 C   0  0  0  0  0  0  0  0  0  0  0  0
   -0.2730   25.5677    4.1640 S   0  0  0  0  0  0  0  0  0  0  0  0
   -5.5257   26.4267    5.2945 C   0  0  0  0  0  0  0  0  0  0  0  0
   -5.7514   26.2500    3.7831 C   0  0  0  0  0  0  0  0  0  0  0  0
   -5.0043   25.0226    3.2140 C   0  0  0  0  0  0  0  0  0  0  0  0
   -4.6023   25.2563    1.7435 C   0  0  0  0  0  0  0  0  0  0  0  0
   -5.7875   25.1642    0.7872 C   0  0  0  0  0  0  0  0  0  0  0  0
   -6.5609   23.8701    1.0092 C   0  0  0  0  0  0  0  0  0  0  0  0
   -6.9235   23.6768    2.4824 C   0  0  0  0  0  0  0  0  0  0  0  0
   -5.7810   23.7801    3.4036 N   0  0  0  0  0  0  0  0  0  0  0  0
   -4.9340   22.5870    3.3476 C   0  0  0  0  0  0  0  0  0  0  0  0
 15 16  1  0  0  0
 16  1  1  0  0  0
  1  2  1  0  0  0
  2  3  2  0  0  0
  3  4  1  0  0  0
  4  5  1  0  0  0
  5  6  1  0  0  0
  6  7  1  0  0  0
  7  8  2  0  0  0
  8  9  1  0  0  0
  9 10  2  0  0  0
 10 11  1  0  0  0
  7 12  1  0  0  0
 12 17  1  0  0  0
 17 18  1  0  0  0
 18 19  1  0  0  0
 19 20  1  0  0  0
 20 21  1  0  0  0
 21 22  1  0  0  0
 22 23  1  0  0  0
 23 24  1  0  0  0
 24 25  1  0  0  0
 12 13  1  0  0  0
 13 14  1  0  0  0
 14  1  2  0  0  0
 13  4  2  0  0  0
 11  6  2  0  0  0
 24 19  1  0  0  0
M  END
> <minimizedAffinity>
-8.60062

$$$$
OCNT-0022142


 21 23  0  0  0  0  0  0  0  0999 V2000
   -2.0067   28.4179    7.2650 C   0  0  0  0  0  0  0  0  0  0  0  0
   -0.6665   28.3621    7.6321 C   0  0  0  0  0  0  0  0  0  0  0  0
    0.0757   29.1007    8.6876 C   0  0  0  0  0  0  0  0  0  0  0  0
   -0.0355   27.4521    6.8175 N   0  0  0  0  0  0  0  0  0  0  0  0
   -0.9424   26.9252    5.9443 C   0  0  0  0  0  0  0  0  0  0  0  0
   -2.1766   27.4906    6.1930 C   0  0  0  0  0  0  0  0  0  0  0  0
   -3.3513   27.1091    5.4094 C   0  0  0  0  0  0  0  0  0  0  0  0
   -4.4521   27.6245    5.5934 O   0  0  0  0  0  0  0  0  0  0  0  0
   -3.1429   25.9664    4.3944 C   0  0  0  0  0  0  0  0  0  0  0  0
   -1.7079   25.9839    3.8096 C   0  0  0  0  0  0  0  0  0  0  0  0
   -0.6317   25.9130    4.9037 C   0  0  0  0  0  0  0  0  0  0  0  0
    0.9479   27.2156    6.8598 H   0  0  0  0  0  0  0  0  0  0  0  0
   -3.2195   30.6111    7.1589 C   0  0  0  0  0  0  0  0  0  0  0  0
   -3.0661   29.2805    7.8797 C   0  0  0  0  0  0  0  0  0  0  0  0
   -4.2091   26.0770    3.2864 C   0  0  0  0  0  0  0  0  0  0  0  0
   -4.6123   24.7821    2.7028 N   0  0  0  0  0  0  0  0  0  0  0  0
   -4.4872   24.7913    1.2263 C   0  0  0  0  0  0  0  0  0  0  0  0
   -5.8188   25.0325    0.4983 C   0  0  0  0  0  0  0  0  0  0  0  0
   -6.8103   24.0397    0.7959 O   0  0  0  0  0  0  0  0  0  0  0  0
   -6.6392   23.4462    2.0901 C   0  0  0  0  0  0  0  0  0  0  0  0
   -5.9894   24.4051    3.0995 C   0  0  0  0  0  0  0  0  0  0  0  0
 13 14  1  0  0  0
 14  1  1  0  0  0
  1  2  2  0  0  0
  2  3  1  0  0  0
  2  4  1  0  0  0
  4  5  1  0  0  0
  5  6  2  0  0  0
  6  7  1  0  0  0
  7  8  2  0  0  0
  7  9  1  0  0  0
  9 15  1  0  0  0
 15 16  1  0  0  0
 16 17  1  0  0  0
 17 18  1  0  0  0
 18 19  1  0  0  0
 19 20  1  0  0  0
 20 21  1  0  0  0
  9 10  1  0  0  0
 10 11  1  0  0  0
  6  1  1  0  0  0
 21 16  1  0  0  0
 11  5  1  0  0  0
  4 12  1  0  0  0
M  END
> <minimizedAffinity>
-7.87804

$$$$
OCNT-0022215


 34 38  0  0  0  0  0  0  0  0999 V2000
   -5.4919   25.5718    4.2010 C   0  0  0  0  0  0  0  0  0  0  0  0
   -6.0133   24.3776    5.0647 C   0  0  0  0  0  0  0  0  0  0  0  0
   -7.4122   24.1964    5.1888 C   0  0  0  0  0  0  0  0  0  0  0  0
   -7.9527   23.1563    5.9474 C   0  0  0  0  0  0  0  0  0  0  0  0
   -7.1102   22.2623    6.5959 C   0  0  0  0  0  0  0  0  0  0  0  0
   -5.7318   22.4052    6.4762 C   0  0  0  0  0  0  0  0  0  0  0  0
   -5.1897   23.4472    5.7151 C   0  0  0  0  0  0  0  0  0  0  0  0
   -3.9677   25.8385    4.4922 C   0  0  0  0  0  0  0  0  0  0  0  0
   -3.5097   26.0951    5.8006 C   0  0  0  0  0  0  0  0  0  0  0  0
   -2.1529   26.2865    6.0791 C   0  0  0  0  0  0  0  0  0  0  0  0
   -1.2122   26.2075    5.0593 C   0  0  0  0  0  0  0  0  0  0  0  0
   -1.6280   25.9277    3.7630 C   0  0  0  0  0  0  0  0  0  0  0  0
   -2.9855   25.7368    3.4845 C   0  0  0  0  0  0  0  0  0  0  0  0
   -5.6263   23.8138    2.3866 N   0  0  0  0  0  0  0  0  0  0  0  0
   -5.7266   25.1534    2.6817 C   0  0  0  0  0  0  0  0  0  0  0  0
   -6.0164   25.9104    1.7584 O   0  0  0  0  0  0  0  0  0  0  0  0
   -5.6700   23.6030    1.3965 H   0  0  0  0  0  0  0  0  0  0  0  0
   -5.0104   23.2266    2.9358 H   0  0  0  0  0  0  0  0  0  0  0  0
   -6.2121   26.9672    4.3635 C   0  0  0  0  0  0  0  0  0  0  0  0
   -5.6086   28.1611    3.6004 C   0  0  0  0  0  0  0  0  0  0  0  0
   -5.7495   29.3543    4.5384 C   0  0  0  0  0  0  0  0  0  0  0  0
   -6.7294   28.9232    5.5363 N   0  0  0  0  0  0  0  0  0  0  0  0
   -6.4541   27.5025    5.7784 C   0  0  0  0  0  0  0  0  0  0  0  0
   -6.6811   29.7537    6.7461 C   0  0  0  0  0  0  0  0  0  0  0  0
   -6.0806   29.0149    7.9528 C   0  0  0  0  0  0  0  0  0  0  0  0
   -4.7498   29.6063    8.3593 C   0  0  0  0  0  0  0  0  0  0  0  0
   -4.7089   30.7681    9.1611 C   0  0  0  0  0  0  0  0  0  0  0  0
   -3.4904   31.3456    9.5267 C   0  0  0  0  0  0  0  0  0  0  0  0
   -2.3329   30.7411    9.0864 C   0  0  0  0  0  0  0  0  0  0  0  0
   -1.0697   31.1981    9.3599 O   0  0  0  0  0  0  0  0  0  0  0  0
   -0.2170   30.1066    8.9419 C   0  0  0  0  0  0  0  0  0  0  0  0
   -0.9679   29.2411    7.9289 C   0  0  0  0  0  0  0  0  0  0  0  0
   -2.3544   29.6049    8.2943 C   0  0  0  0  0  0  0  0  0  0  0  0
   -3.5517   29.0255    7.9125 C   0  0  0  0  0  0  0  0  0  0  0  0
 14 15  1  0  0  0
 15 16  2  0  0  0
 15  1  1  0  0  0
  1  2  1  0  0  0
  2  3  2  0  0  0
  3  4  1  0  0  0
  4  5  2  0  0  0
  5  6  1  0  0  0
  6  7  2  0  0  0
  1  8  1  0  0  0
  8  9  2  0  0  0
  9 10  1  0  0  0
 10 11  2  0  0  0
 11 12  1  0  0  0
 12 13  2  0  0  0
  1 19  1  0  0  0
 19 20  1  0  0  0
 20 21  1  0  0  0
 21 22  1  0  0  0
 22 24  1  0  0  0
 24 25  1  0  0  0
 25 26  1  0  0  0
 26 27  1  0  0  0
 27 28  2  0  0  0
 28 29  1  0  0  0
 29 30  1  0  0  0
 30 31  1  0  0  0
 31 32  1  0  0  0
 32 33  1  0  0  0
 33 34  1  0  0  0
 22 23  1  0  0  0
  7  2  1  0  0  0
 13  8  1  0  0  0
 23 19  1  0  0  0
 34 26  2  0  0  0
 33 29  2  0  0  0
 14 17  1  0  0  0
 14 18  1  0  0  0
M  END
> <minimizedAffinity>
-10.18531

$$$$
OCNT-0022237


 25 29  0  0  0  0  0  0  0  0999 V2000
   -5.2909   30.8545    8.0027 C   0  0  0  0  0  0  0  0  0  0  0  0
   -6.5946   30.5024    7.6424 C   0  0  0  0  0  0  0  0  0  0  0  0
   -6.8394   29.3911    6.8312 C   0  0  0  0  0  0  0  0  0  0  0  0
   -5.7831   28.6095    6.3506 C   0  0  0  0  0  0  0  0  0  0  0  0
   -6.0128   27.5072    5.5215 C   0  0  0  0  0  0  0  0  0  0  0  0
   -4.9457   26.7351    5.0399 C   0  0  0  0  0  0  0  0  0  0  0  0
   -5.0989   25.5699    4.1444 C   0  0  0  0  0  0  0  0  0  0  0  0
   -4.0020   25.1466    3.3405 C   0  0  0  0  0  0  0  0  0  0  0  0
   -4.1204   24.0798    2.4340 C   0  0  0  0  0  0  0  0  0  0  0  0
   -5.3285   23.4267    2.3680 C   0  0  0  0  0  0  0  0  0  0  0  0
   -5.6213   22.3726    1.5643 O   0  0  0  0  0  0  0  0  0  0  0  0
   -6.9966   22.1221    1.9273 C   0  0  0  0  0  0  0  0  0  0  0  0
   -7.4862   23.0264    2.9433 O   0  0  0  0  0  0  0  0  0  0  0  0
   -6.3886   23.8002    3.1520 C   0  0  0  0  0  0  0  0  0  0  0  0
   -6.3082   24.8547    4.0409 C   0  0  0  0  0  0  0  0  0  0  0  0
   -2.7005   25.8897    3.4611 C   0  0  0  0  0  0  0  0  0  0  0  0
   -2.5081   26.2935    4.9118 C   0  0  0  0  0  0  0  0  0  0  0  0
   -3.6741   27.0890    5.3789 N   0  0  0  0  0  0  0  0  0  0  0  0
   -3.4377   28.1453    6.1926 C   0  0  0  0  0  0  0  0  0  0  0  0
   -4.4674   28.9411    6.7050 C   0  0  0  0  0  0  0  0  0  0  0  0
   -4.2236   30.0501    7.5568 C   0  0  0  0  0  0  0  0  0  0  0  0
   -5.1310   33.2431    8.1447 C   0  0  0  0  0  0  0  0  0  0  0  0
   -4.9869   31.9611    8.7461 O   0  0  0  0  0  0  0  0  0  0  0  0
   -2.8905   30.2702    7.8294 O   0  0  0  0  0  0  0  0  0  0  0  0
   -2.2117   31.2188    7.0072 C   0  0  0  0  0  0  0  0  0  0  0  0
 22 23  1  0  0  0
 23  1  1  0  0  0
  1  2  2  0  0  0
  2  3  1  0  0  0
  3  4  2  0  0  0
  4  5  1  0  0  0
  5  6  2  0  0  0
  6  7  1  0  0  0
  7  8  2  0  0  0
  8  9  1  0  0  0
  9 10  2  0  0  0
 10 11  1  0  0  0
 11 12  1  0  0  0
 12 13  1  0  0  0
 13 14  1  0  0  0
 14 15  2  0  0  0
  8 16  1  0  0  0
 16 17  1  0  0  0
 17 18  1  0  0  0
 18 19  2  0  0  0
 19 20  1  0  0  0
 20 21  2  0  0  0
 21 24  1  0  0  0
 24 25  1  0  0  0
 21  1  1  0  0  0
 20  4  1  0  0  0
 18  6  1  0  0  0
 15  7  1  0  0  0
 14 10  1  0  0  0
M  CHG 1  18   1
M  END
> <minimizedAffinity>
-9.10654

$$$$
OCNT-0022246


 28 31  0  0  0  0  0  0  0  0999 V2000
   -6.1089   24.1038    4.2133 N   0  0  0  0  0  0  0  0  0  0  0  0
   -6.0559   23.1971    3.1122 C   0  0  0  0  0  0  0  0  0  0  0  0
   -6.3236   21.8157    3.2566 C   0  0  0  0  0  0  0  0  0  0  0  0
   -6.2855   20.9202    2.1805 C   0  0  0  0  0  0  0  0  0  0  0  0
   -5.9797   21.3775    0.9108 C   0  0  0  0  0  0  0  0  0  0  0  0
   -5.7151   22.7291    0.7260 C   0  0  0  0  0  0  0  0  0  0  0  0
   -5.7537   23.6342    1.8064 C   0  0  0  0  0  0  0  0  0  0  0  0
   -5.3623   25.3181    1.3983 S   0  0  0  0  0  0  0  0  0  0  0  0
   -5.7523   26.1743    2.9044 C   0  0  0  0  0  0  0  0  0  0  0  0
   -6.0567   25.5245    4.1168 C   0  0  0  0  0  0  0  0  0  0  0  0
   -6.3299   26.3662    5.2209 C   0  0  0  0  0  0  0  0  0  0  0  0
   -6.3028   27.7739    5.1452 C   0  0  0  0  0  0  0  0  0  0  0  0
   -5.9793   28.3749    3.9321 C   0  0  0  0  0  0  0  0  0  0  0  0
   -5.7106   27.5802    2.8229 C   0  0  0  0  0  0  0  0  0  0  0  0
   -6.5869   28.6065    6.3705 C   0  0  0  0  0  0  0  0  0  0  0  0
   -7.6742   28.1612    7.0576 F   0  0  0  0  0  0  0  0  0  0  0  0
   -6.8414   29.9130    6.0767 F   0  0  0  0  0  0  0  0  0  0  0  0
   -5.5584   28.6213    7.2633 F   0  0  0  0  0  0  0  0  0  0  0  0
   -6.1321   23.5073    5.5728 C   0  0  0  0  0  0  0  0  0  0  0  0
   -7.5633   23.1435    5.9987 C   0  0  0  0  0  0  0  0  0  0  0  0
   -7.5857   22.1846    7.1951 C   0  0  0  0  0  0  0  0  0  0  0  0
  -10.8143   24.3210   10.7533 C   0  0  0  0  0  0  0  0  0  0  0  0
  -10.8754   23.4172    9.6090 N   0  0  0  0  0  0  0  0  0  0  0  0
  -10.2881   24.0476    8.4121 C   0  0  0  0  0  0  0  0  0  0  0  0
   -9.8985   23.0240    7.3209 C   0  0  0  0  0  0  0  0  0  0  0  0
   -8.9272   21.9951    7.7568 N   0  0  0  0  0  0  0  0  0  0  0  0
   -8.8711   21.9090    9.2318 C   0  0  0  0  0  0  0  0  0  0  0  0
  -10.2499   22.1120    9.8979 C   0  0  0  0  0  0  0  0  0  0  0  0
 22 23  1  0  0  0
 23 24  1  0  0  0
 24 25  1  0  0  0
 25 26  1  0  0  0
 26 21  1  0  0  0
 21 20  1  0  0  0
 20 19  1  0  0  0
 19  1  1  0  0  0
  1  2  1  0  0  0
  2  3  2  0  0  0
  3  4  1  0  0  0
  4  5  2  0  0  0
  5  6  1  0  0  0
  6  7  2  0  0  0
  7  8  1  0  0  0
  8  9  1  0  0  0
  9 10  2  0  0  0
 10 11  1  0  0  0
 11 12  2  0  0  0
 12 15  1  0  0  0
 15 16  1  0  0  0
 15 17  1  0  0  0
 15 18  1  0  0  0
 12 13  1  0  0  0
 13 14  2  0  0  0
 26 27  1  0  0  0
 27 28  1  0  0  0
 28 23  1  0  0  0
 10  1  1  0  0  0
  7  2  1  0  0  0
 14  9  1  0  0  0
M  END
> <minimizedAffinity>
-9.24133

$$$$
OCNT-0022254


 24 26  0  0  0  0  0  0  0  0999 V2000
   -4.3735   28.5469    6.0127 N   0  0  0  0  0  0  0  0  0  0  0  0
   -4.5741   27.6733    4.9073 C   0  0  0  0  0  0  0  0  0  0  0  0
   -3.7004   26.6057    4.6284 C   0  0  0  0  0  0  0  0  0  0  0  0
   -3.9282   25.7719    3.5201 C   0  0  0  0  0  0  0  0  0  0  0  0
   -5.0041   25.9991    2.6651 C   0  0  0  0  0  0  0  0  0  0  0  0
   -5.8568   27.0674    2.9070 C   0  0  0  0  0  0  0  0  0  0  0  0
   -5.6389   27.8963    4.0107 C   0  0  0  0  0  0  0  0  0  0  0  0
   -2.3018   26.2104    5.6583 S   0  0  0  0  0  0  0  0  0  0  0  0
   -2.1262   27.7000    6.6180 C   0  0  0  0  0  0  0  0  0  0  0  0
   -0.9246   27.8588    7.3276 C   0  0  0  0  0  0  0  0  0  0  0  0
   -0.7064   28.9831    8.1227 C   0  0  0  0  0  0  0  0  0  0  0  0
   -1.6818   29.9787    8.2098 C   0  0  0  0  0  0  0  0  0  0  0  0
   -2.8866   29.8082    7.5061 C   0  0  0  0  0  0  0  0  0  0  0  0
   -3.1425   28.6674    6.7168 C   0  0  0  0  0  0  0  0  0  0  0  0
   -1.4635   31.1972    9.0707 C   0  0  0  0  0  0  0  0  0  0  0  0
   -0.1735   31.3024    9.4943 F   0  0  0  0  0  0  0  0  0  0  0  0
   -2.2281   31.2074   10.1979 F   0  0  0  0  0  0  0  0  0  0  0  0
   -1.7403   32.3641    8.4245 F   0  0  0  0  0  0  0  0  0  0  0  0
   -5.5824   28.7396    6.8634 C   0  0  0  0  0  0  0  0  0  0  0  0
   -6.3546   30.0090    6.4734 C   0  0  0  0  0  0  0  0  0  0  0  0
   -6.8217   30.8055    7.6979 C   0  0  0  0  0  0  0  0  0  0  0  0
   -5.2727   32.1604    8.9465 C   0  0  0  0  0  0  0  0  0  0  0  0
   -5.8577   30.8227    8.8109 N   0  0  0  0  0  0  0  0  0  0  0  0
   -6.4798   30.4320   10.0799 C   0  0  0  0  0  0  0  0  0  0  0  0
 22 23  1  0  0  0
 23 24  1  0  0  0
 23 21  1  0  0  0
 21 20  1  0  0  0
 20 19  1  0  0  0
 19  1  1  0  0  0
  1  2  1  0  0  0
  2  3  1  0  0  0
  3  4  2  0  0  0
  4  5  1  0  0  0
  5  6  2  0  0  0
  6  7  1  0  0  0
  3  8  1  0  0  0
  8  9  1  0  0  0
  9 10  1  0  0  0
 10 11  2  0  0  0
 11 12  1  0  0  0
 12 15  1  0  0  0
 15 16  1  0  0  0
 15 17  1  0  0  0
 15 18  1  0  0  0
 12 13  2  0  0  0
 13 14  1  0  0  0
 14  1  1  0  0  0
  7  2  2  0  0  0
 14  9  2  0  0  0
M  END
> <minimizedAffinity>
-8.49547

$$$$
OCNT-0022266


 20 22  0  0  0  0  0  0  0  0999 V2000
   -3.3227   28.4477    7.1271 N   0  0  0  0  0  0  0  0  0  0  0  0
   -3.1545   27.5812    5.9976 C   0  0  0  0  0  0  0  0  0  0  0  0
   -1.9770   26.8213    5.7870 C   0  0  0  0  0  0  0  0  0  0  0  0
   -1.8028   25.9721    4.6859 C   0  0  0  0  0  0  0  0  0  0  0  0
   -2.8064   25.8474    3.7438 C   0  0  0  0  0  0  0  0  0  0  0  0
   -3.9770   26.5753    3.9106 C   0  0  0  0  0  0  0  0  0  0  0  0
   -4.1567   27.4322    5.0179 C   0  0  0  0  0  0  0  0  0  0  0  0
   -5.7159   28.2746    5.0563 S   0  0  0  0  0  0  0  0  0  0  0  0
   -5.6059   29.2260    6.5496 C   0  0  0  0  0  0  0  0  0  0  0  0
   -6.7503   30.0032    6.8323 C   0  0  0  0  0  0  0  0  0  0  0  0
   -6.8149   30.8067    7.9618 C   0  0  0  0  0  0  0  0  0  0  0  0
   -5.7304   30.8406    8.8174 C   0  0  0  0  0  0  0  0  0  0  0  0
   -4.5924   30.0696    8.5399 C   0  0  0  0  0  0  0  0  0  0  0  0
   -4.4833   29.2320    7.4044 C   0  0  0  0  0  0  0  0  0  0  0  0
   -2.2018   28.4754    8.1087 C   0  0  0  0  0  0  0  0  0  0  0  0
   -1.0883   30.6652    8.8825 C   0  0  0  0  0  0  0  0  0  0  0  0
   -1.1375   29.5809    7.7964 C   0  0  0  0  0  0  0  0  0  0  0  0
    0.1817   28.9579    7.4976 N   0  0  0  0  0  0  0  0  0  0  0  0
    1.1920   29.1541    8.5359 C   0  0  0  0  0  0  0  0  0  0  0  0
    0.7055   29.3712    6.1947 C   0  0  0  0  0  0  0  0  0  0  0  0
 16 17  1  0  0  0
 17 15  1  0  0  0
 15  1  1  0  0  0
  1  2  1  0  0  0
  2  3  2  0  0  0
  3  4  1  0  0  0
  4  5  2  0  0  0
  5  6  1  0  0  0
  6  7  2  0  0  0
  7  8  1  0  0  0
  8  9  1  0  0  0
  9 10  2  0  0  0
 10 11  1  0  0  0
 11 12  2  0  0  0
 12 13  1  0  0  0
 13 14  2  0  0  0
 17 18  1  0  0  0
 18 19  1  0  0  0
 18 20  1  0  0  0
 14  1  1  0  0  0
  7  2  1  0  0  0
 14  9  1  0  0  0
M  END
> <minimizedAffinity>
-7.58354

$$$$
OCNT-0022267


 20 22  0  0  0  0  0  0  0  0999 V2000
   -2.9618   28.3269    6.8876 N   0  0  0  0  0  0  0  0  0  0  0  0
   -4.2932   28.8343    6.8305 C   0  0  0  0  0  0  0  0  0  0  0  0
   -4.7348   29.8919    7.6585 C   0  0  0  0  0  0  0  0  0  0  0  0
   -6.0363   30.4064    7.6020 C   0  0  0  0  0  0  0  0  0  0  0  0
   -6.9496   29.8798    6.7059 C   0  0  0  0  0  0  0  0  0  0  0  0
   -6.5536   28.8421    5.8710 C   0  0  0  0  0  0  0  0  0  0  0  0
   -5.2438   28.3226    5.9238 C   0  0  0  0  0  0  0  0  0  0  0  0
   -4.9167   26.9804    4.8070 S   0  0  0  0  0  0  0  0  0  0  0  0
   -3.1608   26.7681    4.9724 C   0  0  0  0  0  0  0  0  0  0  0  0
   -2.5751   25.8731    4.0539 C   0  0  0  0  0  0  0  0  0  0  0  0
   -1.2126   25.6022    4.0830 C   0  0  0  0  0  0  0  0  0  0  0  0
   -0.4237   26.2268    5.0327 C   0  0  0  0  0  0  0  0  0  0  0  0
   -1.0018   27.1152    5.9485 C   0  0  0  0  0  0  0  0  0  0  0  0
   -2.3849   27.4125    5.9572 C   0  0  0  0  0  0  0  0  0  0  0  0
   -2.1389   28.7100    8.0622 C   0  0  0  0  0  0  0  0  0  0  0  0
   -1.2220   29.9000    7.7392 C   0  0  0  0  0  0  0  0  0  0  0  0
   -0.7065   30.5953    9.0049 C   0  0  0  0  0  0  0  0  0  0  0  0
   -2.3104   31.8764   10.3089 C   0  0  0  0  0  0  0  0  0  0  0  0
   -1.3042   31.9189    9.2435 N   0  0  0  0  0  0  0  0  0  0  0  0
   -1.9225   32.4209    8.0118 C   0  0  0  0  0  0  0  0  0  0  0  0
 18 19  1  0  0  0
 19 20  1  0  0  0
 19 17  1  0  0  0
 17 16  1  0  0  0
 16 15  1  0  0  0
 15  1  1  0  0  0
  1  2  1  0  0  0
  2  3  2  0  0  0
  3  4  1  0  0  0
  4  5  2  0  0  0
  5  6  1  0  0  0
  6  7  2  0  0  0
  7  8  1  0  0  0
  8  9  1  0  0  0
  9 10  2  0  0  0
 10 11  1  0  0  0
 11 12  2  0  0  0
 12 13  1  0  0  0
 13 14  2  0  0  0
 14  1  1  0  0  0
  7  2  1  0  0  0
 14  9  1  0  0  0
M  END
> <minimizedAffinity>
-7.47526

$$$$
OCNT-0022268


 25 28  0  0  0  0  0  0  0  0999 V2000
   -3.4269   29.0094    7.3242 N   0  0  0  0  0  0  0  0  0  0  0  0
   -2.5718   28.0877    6.6659 C   0  0  0  0  0  0  0  0  0  0  0  0
   -3.0203   27.3456    5.5544 C   0  0  0  0  0  0  0  0  0  0  0  0
   -2.1899   26.4391    4.8882 C   0  0  0  0  0  0  0  0  0  0  0  0
   -0.8786   26.2640    5.3075 C   0  0  0  0  0  0  0  0  0  0  0  0
   -0.3960   27.0108    6.3790 C   0  0  0  0  0  0  0  0  0  0  0  0
   -1.2246   27.9286    7.0464 C   0  0  0  0  0  0  0  0  0  0  0  0
   -0.4993   28.8349    8.3991 S   0  0  0  0  0  0  0  0  0  0  0  0
   -1.6515   30.1834    8.5752 C   0  0  0  0  0  0  0  0  0  0  0  0
   -1.2092   31.3048    9.2978 C   0  0  0  0  0  0  0  0  0  0  0  0
   -2.0535   32.3922    9.5091 C   0  0  0  0  0  0  0  0  0  0  0  0
   -3.3417   32.3603    8.9941 C   0  0  0  0  0  0  0  0  0  0  0  0
   -4.3905   33.7036    9.2349 Cl  0  0  0  0  0  0  0  0  0  0  0  0
   -3.7932   31.2492    8.2788 C   0  0  0  0  0  0  0  0  0  0  0  0
   -2.9657   30.1286    8.0656 C   0  0  0  0  0  0  0  0  0  0  0  0
   -4.8242   28.5679    7.5634 C   0  0  0  0  0  0  0  0  0  0  0  0
   -5.8055   28.9862    6.4556 C   0  0  0  0  0  0  0  0  0  0  0  0
   -6.6657   27.8593    5.8599 C   0  0  0  0  0  0  0  0  0  0  0  0
   -4.6774   24.2338    1.9023 C   0  0  0  0  0  0  0  0  0  0  0  0
   -4.9683   25.1131    3.0260 N   0  0  0  0  0  0  0  0  0  0  0  0
   -5.1399   26.5144    2.5960 C   0  0  0  0  0  0  0  0  0  0  0  0
   -6.0647   27.3802    3.4970 C   0  0  0  0  0  0  0  0  0  0  0  0
   -6.0426   26.9600    4.8913 N   0  0  0  0  0  0  0  0  0  0  0  0
   -6.3755   25.5388    5.0601 C   0  0  0  0  0  0  0  0  0  0  0  0
   -6.1225   24.6573    3.8067 C   0  0  0  0  0  0  0  0  0  0  0  0
 19 20  1  0  0  0
 20 21  1  0  0  0
 21 22  1  0  0  0
 22 23  1  0  0  0
 23 18  1  0  0  0
 18 17  1  0  0  0
 17 16  1  0  0  0
 16  1  1  0  0  0
  1  2  1  0  0  0
  2  3  2  0  0  0
  3  4  1  0  0  0
  4  5  2  0  0  0
  5  6  1  0  0  0
  6  7  2  0  0  0
  7  8  1  0  0  0
  8  9  1  0  0  0
  9 10  1  0  0  0
 10 11  2  0  0  0
 11 12  1  0  0  0
 12 13  1  0  0  0
 12 14  2  0  0  0
 14 15  1  0  0  0
 23 24  1  0  0  0
 24 25  1  0  0  0
 25 20  1  0  0  0
 15  1  1  0  0  0
  7  2  1  0  0  0
 15  9  2  0  0  0
M  END
> <minimizedAffinity>
-8.56876

$$$$
OCNT-0022269


 30 33  0  0  0  0  0  0  0  0999 V2000
   -6.0861   29.5869    7.2834 C   0  0  0  0  0  0  0  0  0  0  0  0
   -6.8893   29.1046    6.2575 C   0  0  0  0  0  0  0  0  0  0  0  0
   -6.3599   28.1820    5.3597 C   0  0  0  0  0  0  0  0  0  0  0  0
   -5.0307   27.7285    5.4739 C   0  0  0  0  0  0  0  0  0  0  0  0
   -4.5351   26.5272    4.2638 S   0  0  0  0  0  0  0  0  0  0  0  0
   -2.7869   26.3974    4.5521 C   0  0  0  0  0  0  0  0  0  0  0  0
   -2.1339   26.9736    5.6608 C   0  0  0  0  0  0  0  0  0  0  0  0
   -0.7384   26.7579    5.7387 C   0  0  0  0  0  0  0  0  0  0  0  0
   -0.0340   26.0082    4.7881 C   0  0  0  0  0  0  0  0  0  0  0  0
   -0.7039   25.4464    3.7155 C   0  0  0  0  0  0  0  0  0  0  0  0
   -2.0746   25.6415    3.5989 C   0  0  0  0  0  0  0  0  0  0  0  0
   -2.8410   27.7469    6.6285 N   0  0  0  0  0  0  0  0  0  0  0  0
   -4.1907   28.1904    6.5065 C   0  0  0  0  0  0  0  0  0  0  0  0
   -4.7593   29.1323    7.3956 C   0  0  0  0  0  0  0  0  0  0  0  0
   -6.4552   30.2506    9.7532 C   0  0  0  0  0  0  0  0  0  0  0  0
   -6.5894   30.5706    8.2874 C   0  0  0  0  0  0  0  0  0  0  0  0
   -7.0918   31.6271    7.9098 O   0  0  0  0  0  0  0  0  0  0  0  0
   -2.1453   28.0354    7.9056 C   0  0  0  0  0  0  0  0  0  0  0  0
   -0.6515   28.3210    7.6904 C   0  0  0  0  0  0  0  0  0  0  0  0
   -0.4014   29.8324    7.6259 C   0  0  0  0  0  0  0  0  0  0  0  0
   -1.5662   30.6172    8.0544 N   0  0  0  0  0  0  0  0  0  0  0  0
   -1.3808   31.1155    9.4285 C   0  0  0  0  0  0  0  0  0  0  0  0
   -2.2498   32.3318    9.7865 C   0  0  0  0  0  0  0  0  0  0  0  0
   -3.5718   32.3241    9.0154 C   0  0  0  0  0  0  0  0  0  0  0  0
   -3.2860   32.2872    7.4988 C   0  0  0  0  0  0  0  0  0  0  0  0
   -1.9114   31.7050    7.1418 C   0  0  0  0  0  0  0  0  0  0  0  0
   -4.4827   33.5201    9.3548 C   0  0  0  0  0  0  0  0  0  0  0  0
   -4.6451   34.5397    8.2315 C   0  0  0  0  0  0  0  0  0  0  0  0
   -5.7555   34.1970    7.4175 O   0  0  0  0  0  0  0  0  0  0  0  0
   -5.8198   34.8701    6.7191 H   0  0  0  0  0  0  0  0  0  0  0  0
 15 16  1  0  0  0
 16 17  2  0  0  0
 16  1  1  0  0  0
  1  2  1  0  0  0
  2  3  2  0  0  0
  3  4  1  0  0  0
  4  5  1  0  0  0
  5  6  1  0  0  0
  6  7  1  0  0  0
  7  8  2  0  0  0
  8  9  1  0  0  0
  9 10  2  0  0  0
 10 11  1  0  0  0
  7 12  1  0  0  0
 12 18  1  0  0  0
 18 19  1  0  0  0
 19 20  1  0  0  0
 20 21  1  0  0  0
 21 22  1  0  0  0
 22 23  1  0  0  0
 23 24  1  0  0  0
 24 27  1  0  0  0
 27 28  1  0  0  0
 28 29  1  0  0  0
 24 25  1  0  0  0
 25 26  1  0  0  0
 12 13  1  0  0  0
 13 14  1  0  0  0
 14  1  2  0  0  0
 13  4  2  0  0  0
 11  6  2  0  0  0
 26 21  1  0  0  0
 29 30  1  0  0  0
M  END
> <minimizedAffinity>
-9.51055

$$$$
OCNT-0022271


 35 39  0  0  0  0  0  0  0  0999 V2000
   -1.6199   25.7950    4.7679 C   0  0  0  0  0  0  0  0  0  0  0  0
   -1.8064   28.8817    7.7623 C   0  0  0  0  0  0  0  0  0  0  0  0
   -3.0784   28.4561    7.0259 C   0  0  0  0  0  0  0  0  0  0  0  0
   -2.8821   27.0939    6.3626 C   0  0  0  0  0  0  0  0  0  0  0  0
   -1.7320   27.0972    5.4451 N   0  0  0  0  0  0  0  0  0  0  0  0
   -0.4934   27.4727    6.1420 C   0  0  0  0  0  0  0  0  0  0  0  0
   -0.6149   28.8461    6.8032 C   0  0  0  0  0  0  0  0  0  0  0  0
    0.1935   30.5049    9.3712 O   0  0  0  0  0  0  0  0  0  0  0  0
   -0.9524   30.8543    9.1448 C   0  0  0  0  0  0  0  0  0  0  0  0
   -1.5292   32.0522    9.5916 N   0  0  0  0  0  0  0  0  0  0  0  0
   -2.8436   32.1161    9.1515 C   0  0  0  0  0  0  0  0  0  0  0  0
   -3.7750   33.1078    9.3596 C   0  0  0  0  0  0  0  0  0  0  0  0
   -5.0390   32.9124    8.7972 C   0  0  0  0  0  0  0  0  0  0  0  0
   -5.3292   31.7485    8.0553 C   0  0  0  0  0  0  0  0  0  0  0  0
   -4.3616   30.7543    7.8590 C   0  0  0  0  0  0  0  0  0  0  0  0
   -3.1185   30.9606    8.4190 C   0  0  0  0  0  0  0  0  0  0  0  0
   -1.9513   30.1755    8.4086 N   0  0  0  0  0  0  0  0  0  0  0  0
   -1.0353   32.7318   10.1454 H   0  0  0  0  0  0  0  0  0  0  0  0
   -2.2213   25.7561    3.3541 C   0  0  0  0  0  0  0  0  0  0  0  0
   -3.6137   25.1057    3.3155 C   0  0  0  0  0  0  0  0  0  0  0  0
   -4.6622   25.9764    2.5781 C   0  0  0  0  0  0  0  0  0  0  0  0
   -5.6558   25.1289    1.7847 C   0  0  0  0  0  0  0  0  0  0  0  0
   -6.2472   23.9813    2.3417 C   0  0  0  0  0  0  0  0  0  0  0  0
   -7.1539   23.2200    1.6027 C   0  0  0  0  0  0  0  0  0  0  0  0
   -7.4745   23.6030    0.3070 C   0  0  0  0  0  0  0  0  0  0  0  0
   -8.3445   22.8716   -0.4013 F   0  0  0  0  0  0  0  0  0  0  0  0
   -6.9070   24.7343   -0.2647 C   0  0  0  0  0  0  0  0  0  0  0  0
   -5.9999   25.4977    0.4720 C   0  0  0  0  0  0  0  0  0  0  0  0
   -5.3852   26.9860    3.4738 C   0  0  0  0  0  0  0  0  0  0  0  0
   -5.5803   28.3287    3.1061 C   0  0  0  0  0  0  0  0  0  0  0  0
   -6.2338   29.2156    3.9656 C   0  0  0  0  0  0  0  0  0  0  0  0
   -6.6899   28.7686    5.1984 C   0  0  0  0  0  0  0  0  0  0  0  0
   -7.3147   29.6211    6.0210 F   0  0  0  0  0  0  0  0  0  0  0  0
   -6.5042   27.4505    5.5916 C   0  0  0  0  0  0  0  0  0  0  0  0
   -5.8525   26.5629    4.7339 C   0  0  0  0  0  0  0  0  0  0  0  0
  8  9  2  0  0  0
  9 10  1  0  0  0
 10 11  1  0  0  0
 11 12  2  0  0  0
 12 13  1  0  0  0
 13 14  2  0  0  0
 14 15  1  0  0  0
 15 16  2  0  0  0
 16 17  1  0  0  0
 17  2  1  0  0  0
  2  3  1  0  0  0
  3  4  1  0  0  0
  4  5  1  0  0  0
  5  1  1  0  0  0
  1 19  1  0  0  0
 19 20  1  0  0  0
 20 21  1  0  0  0
 21 22  1  0  0  0
 22 23  1  0  0  0
 23 24  2  0  0  0
 24 25  1  0  0  0
 25 26  1  0  0  0
 25 27  2  0  0  0
 27 28  1  0  0  0
 21 29  1  0  0  0
 29 30  1  0  0  0
 30 31  2  0  0  0
 31 32  1  0  0  0
 32 33  1  0  0  0
 32 34  2  0  0  0
 34 35  1  0  0  0
  5  6  1  0  0  0
  6  7  1  0  0  0
 17  9  1  0  0  0
  7  2  1  0  0  0
 16 11  1  0  0  0
 28 22  2  0  0  0
 35 29  2  0  0  0
 10 18  1  0  0  0
M  END
> <minimizedAffinity>
-11.91261

$$$$
OCNT-0022281


 19 20  0  0  0  0  0  0  0  0999 V2000
   -0.5095   27.8737    7.3961 C   0  0  0  0  0  0  0  0  0  0  0  0
   -0.2679   29.3237    7.0258 C   0  0  0  0  0  0  0  0  0  0  0  0
    0.6328   29.6277    6.2441 O   0  0  0  0  0  0  0  0  0  0  0  0
   -1.1211   30.4031    7.6139 C   0  0  0  0  0  0  0  0  0  0  0  0
   -0.9442   30.7166    8.9722 C   0  0  0  0  0  0  0  0  0  0  0  0
   -1.7122   31.7145    9.5763 C   0  0  0  0  0  0  0  0  0  0  0  0
   -2.6589   32.3968    8.8238 C   0  0  0  0  0  0  0  0  0  0  0  0
   -3.3974   33.3537    9.3996 F   0  0  0  0  0  0  0  0  0  0  0  0
   -2.8527   32.0983    7.4799 C   0  0  0  0  0  0  0  0  0  0  0  0
   -2.0851   31.0997    6.8714 C   0  0  0  0  0  0  0  0  0  0  0  0
   -1.9964   27.5373    7.3196 C   0  0  0  0  0  0  0  0  0  0  0  0
   -2.5014   27.2657    5.8931 C   0  0  0  0  0  0  0  0  0  0  0  0
   -6.1969   29.6660    3.1691 C   0  0  0  0  0  0  0  0  0  0  0  0
   -6.1533   28.8394    4.4541 C   0  0  0  0  0  0  0  0  0  0  0  0
   -5.8843   27.3538    4.1649 C   0  0  0  0  0  0  0  0  0  0  0  0
   -4.4103   26.9966    4.3640 C   0  0  0  0  0  0  0  0  0  0  0  0
   -3.9619   27.2117    5.7454 N   0  0  0  0  0  0  0  0  0  0  0  0
   -4.6218   28.3520    6.4039 C   0  0  0  0  0  0  0  0  0  0  0  0
   -5.1143   29.4176    5.4268 C   0  0  0  0  0  0  0  0  0  0  0  0
 13 14  1  0  0  0
 14 15  1  0  0  0
 15 16  1  0  0  0
 16 17  1  0  0  0
 17 12  1  0  0  0
 12 11  1  0  0  0
 11  1  1  0  0  0
  1  2  1  0  0  0
  2  3  2  0  0  0
  2  4  1  0  0  0
  4  5  1  0  0  0
  5  6  2  0  0  0
  6  7  1  0  0  0
  7  8  1  0  0  0
  7  9  2  0  0  0
  9 10  1  0  0  0
 17 18  1  0  0  0
 18 19  1  0  0  0
 19 14  1  0  0  0
 10  4  2  0  0  0
M  END
> <minimizedAffinity>
-7.62505

$$$$
OCNT-0022288


 31 34  0  0  0  0  0  0  0  0999 V2000
   -5.9264   24.1148    4.2326 N   0  0  0  0  0  0  0  0  0  0  0  0
   -5.9436   23.2376    3.1134 C   0  0  0  0  0  0  0  0  0  0  0  0
   -6.3699   21.9004    3.2451 C   0  0  0  0  0  0  0  0  0  0  0  0
   -6.4059   21.0237    2.1565 C   0  0  0  0  0  0  0  0  0  0  0  0
   -6.0302   21.4678    0.8966 C   0  0  0  0  0  0  0  0  0  0  0  0
   -5.6316   22.7905    0.7291 C   0  0  0  0  0  0  0  0  0  0  0  0
   -5.5992   23.6770    1.8200 C   0  0  0  0  0  0  0  0  0  0  0  0
   -5.0541   25.3387    1.4831 S   0  0  0  0  0  0  0  0  0  0  0  0
   -5.6075   26.1977    2.9404 C   0  0  0  0  0  0  0  0  0  0  0  0
   -5.6513   27.6000    2.8664 C   0  0  0  0  0  0  0  0  0  0  0  0
   -6.0445   28.3620    3.9644 C   0  0  0  0  0  0  0  0  0  0  0  0
   -6.3988   27.7325    5.1594 C   0  0  0  0  0  0  0  0  0  0  0  0
   -6.3578   26.3273    5.2240 C   0  0  0  0  0  0  0  0  0  0  0  0
   -5.9452   25.5322    4.1343 C   0  0  0  0  0  0  0  0  0  0  0  0
   -6.8620   28.5345    6.3499 C   0  0  0  0  0  0  0  0  0  0  0  0
   -7.2357   29.8048    6.0305 F   0  0  0  0  0  0  0  0  0  0  0  0
   -5.9013   28.6618    7.3080 F   0  0  0  0  0  0  0  0  0  0  0  0
   -7.9358   27.9727    6.9695 F   0  0  0  0  0  0  0  0  0  0  0  0
   -5.3619   23.5518    5.4897 C   0  0  0  0  0  0  0  0  0  0  0  0
   -6.3373   22.6297    6.2403 C   0  0  0  0  0  0  0  0  0  0  0  0
   -7.7975   23.1018    6.2236 C   0  0  0  0  0  0  0  0  0  0  0  0
  -10.3090   23.8700    8.1636 N   0  0  0  0  0  0  0  0  0  0  0  0
  -10.8311   23.5301    6.8212 C   0  0  0  0  0  0  0  0  0  0  0  0
  -10.1248   22.3263    6.1385 C   0  0  0  0  0  0  0  0  0  0  0  0
   -8.7547   22.0469    6.6045 N   0  0  0  0  0  0  0  0  0  0  0  0
   -8.7802   21.8626    8.0752 C   0  0  0  0  0  0  0  0  0  0  0  0
   -9.8726   22.6455    8.8542 C   0  0  0  0  0  0  0  0  0  0  0  0
  -11.2851   24.6243    8.9743 C   0  0  0  0  0  0  0  0  0  0  0  0
   -9.4958   25.9933    9.8749 O   0  0  0  0  0  0  0  0  0  0  0  0
  -10.6391   25.2197   10.2350 C   0  0  0  0  0  0  0  0  0  0  0  0
   -9.7073   26.3527    8.9883 H   0  0  0  0  0  0  0  0  0  0  0  0
 29 30  1  0  0  0
 30 28  1  0  0  0
 28 22  1  0  0  0
 22 23  1  0  0  0
 23 24  1  0  0  0
 24 25  1  0  0  0
 25 21  1  0  0  0
 21 20  1  0  0  0
 20 19  1  0  0  0
 19  1  1  0  0  0
  1  2  1  0  0  0
  2  3  2  0  0  0
  3  4  1  0  0  0
  4  5  2  0  0  0
  5  6  1  0  0  0
  6  7  2  0  0  0
  7  8  1  0  0  0
  8  9  1  0  0  0
  9 10  1  0  0  0
 10 11  2  0  0  0
 11 12  1  0  0  0
 12 15  1  0  0  0
 15 16  1  0  0  0
 15 17  1  0  0  0
 15 18  1  0  0  0
 12 13  2  0  0  0
 13 14  1  0  0  0
 25 26  1  0  0  0
 26 27  1  0  0  0
 27 22  1  0  0  0
 14  1  1  0  0  0
  7  2  1  0  0  0
 14  9  2  0  0  0
 29 31  1  0  0  0
M  END
> <minimizedAffinity>
-9.14945

$$$$
OCNT-0022291


 29 32  0  0  0  0  0  0  0  0999 V2000
   -1.8203   26.9516    5.1783 N   0  0  0  0  0  0  0  0  0  0  0  0
   -0.5345   27.4922    5.6384 C   0  0  0  0  0  0  0  0  0  0  0  0
   -0.6515   28.6755    6.5572 C   0  0  0  0  0  0  0  0  0  0  0  0
   -1.7879   29.0484    7.1744 C   0  0  0  0  0  0  0  0  0  0  0  0
   -3.0382   28.2293    6.9130 C   0  0  0  0  0  0  0  0  0  0  0  0
   -2.7511   26.8438    6.3091 C   0  0  0  0  0  0  0  0  0  0  0  0
   -1.8941   30.1516    8.0201 N   0  0  0  0  0  0  0  0  0  0  0  0
   -0.8642   30.5402    8.9556 C   0  0  0  0  0  0  0  0  0  0  0  0
    0.2370   30.0503    9.1562 O   0  0  0  0  0  0  0  0  0  0  0  0
   -1.3548   31.6376    9.6754 N   0  0  0  0  0  0  0  0  0  0  0  0
   -2.6137   31.9672    9.2118 C   0  0  0  0  0  0  0  0  0  0  0  0
   -2.9591   31.0848    8.1874 C   0  0  0  0  0  0  0  0  0  0  0  0
   -4.1439   31.2747    7.4998 C   0  0  0  0  0  0  0  0  0  0  0  0
   -4.9880   32.3202    7.9042 C   0  0  0  0  0  0  0  0  0  0  0  0
   -4.6335   33.1717    8.9660 C   0  0  0  0  0  0  0  0  0  0  0  0
   -3.4199   33.0047    9.6316 C   0  0  0  0  0  0  0  0  0  0  0  0
   -0.8292   32.0980   10.3995 H   0  0  0  0  0  0  0  0  0  0  0  0
   -1.6119   25.6745    4.4812 C   0  0  0  0  0  0  0  0  0  0  0  0
   -2.8580   25.1796    3.7356 C   0  0  0  0  0  0  0  0  0  0  0  0
   -3.4762   26.3053    2.9010 C   0  0  0  0  0  0  0  0  0  0  0  0
   -5.7107   25.5727    2.3627 O   0  0  0  0  0  0  0  0  0  0  0  0
   -4.9920   26.3334    3.0070 C   0  0  0  0  0  0  0  0  0  0  0  0
   -5.6295   27.3400    3.9120 C   0  0  0  0  0  0  0  0  0  0  0  0
   -5.7258   28.6690    3.4673 C   0  0  0  0  0  0  0  0  0  0  0  0
   -6.3132   29.6455    4.2746 C   0  0  0  0  0  0  0  0  0  0  0  0
   -6.8030   29.2933    5.5251 C   0  0  0  0  0  0  0  0  0  0  0  0
   -7.3713   30.2261    6.2995 F   0  0  0  0  0  0  0  0  0  0  0  0
   -6.7112   27.9847    5.9863 C   0  0  0  0  0  0  0  0  0  0  0  0
   -6.1230   27.0039    5.1812 C   0  0  0  0  0  0  0  0  0  0  0  0
 21 22  2  0  0  0
 22 20  1  0  0  0
 20 19  1  0  0  0
 19 18  1  0  0  0
 18  1  1  0  0  0
  1  2  1  0  0  0
  2  3  1  0  0  0
  3  4  2  0  0  0
  4  7  1  0  0  0
  7  8  1  0  0  0
  8  9  2  0  0  0
  8 10  1  0  0  0
 10 11  1  0  0  0
 11 12  1  0  0  0
 12 13  2  0  0  0
 13 14  1  0  0  0
 14 15  2  0  0  0
 15 16  1  0  0  0
  4  5  1  0  0  0
  5  6  1  0  0  0
 22 23  1  0  0  0
 23 24  1  0  0  0
 24 25  2  0  0  0
 25 26  1  0  0  0
 26 27  1  0  0  0
 26 28  2  0  0  0
 28 29  1  0  0  0
  6  1  1  0  0  0
 29 23  2  0  0  0
 12  7  1  0  0  0
 16 11  2  0  0  0
 10 17  1  0  0  0
M  END
> <minimizedAffinity>
-9.54201

$$$$
OCNT-0022294


 21 23  0  0  0  0  0  0  0  0999 V2000
   -2.7178   28.2519    6.8668 N   0  0  0  0  0  0  0  0  0  0  0  0
   -2.1764   27.3473    5.9061 C   0  0  0  0  0  0  0  0  0  0  0  0
   -0.7904   27.0801    5.8187 C   0  0  0  0  0  0  0  0  0  0  0  0
   -0.2473   26.2033    4.8711 C   0  0  0  0  0  0  0  0  0  0  0  0
   -1.0763   25.5607    3.9683 C   0  0  0  0  0  0  0  0  0  0  0  0
   -2.4438   25.8022    4.0172 C   0  0  0  0  0  0  0  0  0  0  0  0
   -2.9943   26.6860    4.9675 C   0  0  0  0  0  0  0  0  0  0  0  0
   -4.7614   26.8586    4.9097 S   0  0  0  0  0  0  0  0  0  0  0  0
   -5.0462   28.2135    6.0222 C   0  0  0  0  0  0  0  0  0  0  0  0
   -4.0553   28.7470    6.8736 C   0  0  0  0  0  0  0  0  0  0  0  0
   -4.4594   29.8127    7.7100 C   0  0  0  0  0  0  0  0  0  0  0  0
   -5.7680   30.3070    7.7090 C   0  0  0  0  0  0  0  0  0  0  0  0
   -6.1918   31.6063    8.7563 Cl  0  0  0  0  0  0  0  0  0  0  0  0
   -6.7256   29.7622    6.8715 C   0  0  0  0  0  0  0  0  0  0  0  0
   -6.3629   28.7175    6.0298 C   0  0  0  0  0  0  0  0  0  0  0  0
   -1.8560   28.6086    8.0182 C   0  0  0  0  0  0  0  0  0  0  0  0
   -0.9957   29.8480    7.7286 C   0  0  0  0  0  0  0  0  0  0  0  0
   -0.6023   30.5421    9.0386 C   0  0  0  0  0  0  0  0  0  0  0  0
   -1.7973   32.3333    7.9611 C   0  0  0  0  0  0  0  0  0  0  0  0
   -1.2872   31.8293    9.2397 N   0  0  0  0  0  0  0  0  0  0  0  0
   -2.3861   31.7320   10.2033 C   0  0  0  0  0  0  0  0  0  0  0  0
 19 20  1  0  0  0
 20 21  1  0  0  0
 20 18  1  0  0  0
 18 17  1  0  0  0
 17 16  1  0  0  0
 16  1  1  0  0  0
  1  2  1  0  0  0
  2  3  2  0  0  0
  3  4  1  0  0  0
  4  5  2  0  0  0
  5  6  1  0  0  0
  6  7  2  0  0  0
  7  8  1  0  0  0
  8  9  1  0  0  0
  9 10  2  0  0  0
 10 11  1  0  0  0
 11 12  2  0  0  0
 12 13  1  0  0  0
 12 14  1  0  0  0
 14 15  2  0  0  0
 10  1  1  0  0  0
  7  2  1  0  0  0
 15  9  1  0  0  0
M  END
> <minimizedAffinity>
-7.68943

$$$$
OCNT-0022297


 32 36  0  0  0  0  0  0  0  0999 V2000
   -0.4970   27.8120    6.7418 C   0  0  0  0  0  0  0  0  0  0  0  0
    0.3155   29.0403    7.1585 C   0  0  0  0  0  0  0  0  0  0  0  0
    0.2312   29.3428    8.6551 C   0  0  0  0  0  0  0  0  0  0  0  0
   -0.0709   30.7229    8.8686 O   0  0  0  0  0  0  0  0  0  0  0  0
   -6.6842   28.6678    9.9910 O   0  0  0  0  0  0  0  0  0  0  0  0
   -5.9090   29.5637    9.6769 C   0  0  0  0  0  0  0  0  0  0  0  0
   -6.4108   30.9182    9.3375 C   0  0  0  0  0  0  0  0  0  0  0  0
   -5.5743   31.9070    8.9947 C   0  0  0  0  0  0  0  0  0  0  0  0
   -4.1333   31.6614    8.9486 C   0  0  0  0  0  0  0  0  0  0  0  0
   -3.6498   30.3859    9.2639 C   0  0  0  0  0  0  0  0  0  0  0  0
   -2.2833   30.1147    9.2261 C   0  0  0  0  0  0  0  0  0  0  0  0
   -1.3778   31.1210    8.8765 C   0  0  0  0  0  0  0  0  0  0  0  0
   -1.8562   32.3938    8.5580 C   0  0  0  0  0  0  0  0  0  0  0  0
   -3.2301   32.6644    8.5946 C   0  0  0  0  0  0  0  0  0  0  0  0
   -4.5549   29.3765    9.6194 N   0  0  0  0  0  0  0  0  0  0  0  0
   -4.2234   28.4506    9.8521 H   0  0  0  0  0  0  0  0  0  0  0  0
   -1.9793   28.1308    6.4978 C   0  0  0  0  0  0  0  0  0  0  0  0
   -2.6968   27.0066    5.8910 N   0  0  0  0  0  0  0  0  0  0  0  0
   -1.9341   26.3244    4.8188 C   0  0  0  0  0  0  0  0  0  0  0  0
   -2.7412   25.8988    3.5639 C   0  0  0  0  0  0  0  0  0  0  0  0
   -4.0525   25.3592    3.9424 N   0  0  0  0  0  0  0  0  0  0  0  0
   -4.8443   26.2004    4.8572 C   0  0  0  0  0  0  0  0  0  0  0  0
   -4.0345   27.3954    5.4186 C   0  0  0  0  0  0  0  0  0  0  0  0
   -4.7840   24.8147    2.8640 C   0  0  0  0  0  0  0  0  0  0  0  0
   -5.0886   23.4289    2.6816 C   0  0  0  0  0  0  0  0  0  0  0  0
   -4.7494   22.2696    3.4720 C   0  0  0  0  0  0  0  0  0  0  0  0
   -5.2338   21.0922    2.9558 C   0  0  0  0  0  0  0  0  0  0  0  0
   -6.1026   21.3441    1.5144 S   0  0  0  0  0  0  0  0  0  0  0  0
   -5.8368   23.0484    1.5604 C   0  0  0  0  0  0  0  0  0  0  0  0
   -6.2932   23.9850    0.6129 C   0  0  0  0  0  0  0  0  0  0  0  0
   -5.9880   25.3295    0.7966 C   0  0  0  0  0  0  0  0  0  0  0  0
   -5.2493   25.7328    1.9005 C   0  0  0  0  0  0  0  0  0  0  0  0
  5  6  2  0  0  0
  6  7  1  0  0  0
  7  8  2  0  0  0
  8  9  1  0  0  0
  9 10  2  0  0  0
 10 11  1  0  0  0
 11 12  2  0  0  0
 12  4  1  0  0  0
  4  3  1  0  0  0
  3  2  1  0  0  0
  2  1  1  0  0  0
  1 17  1  0  0  0
 17 18  1  0  0  0
 18 19  1  0  0  0
 19 20  1  0  0  0
 20 21  1  0  0  0
 21 24  1  0  0  0
 24 25  2  0  0  0
 25 26  1  0  0  0
 26 27  2  0  0  0
 27 28  1  0  0  0
 28 29  1  0  0  0
 29 30  2  0  0  0
 30 31  1  0  0  0
 31 32  2  0  0  0
 21 22  1  0  0  0
 22 23  1  0  0  0
 12 13  1  0  0  0
 13 14  2  0  0  0
 10 15  1  0  0  0
 15  6  1  0  0  0
 14  9  1  0  0  0
 23 18  1  0  0  0
 32 24  1  0  0  0
 29 25  1  0  0  0
 15 16  1  0  0  0
M  END
> <minimizedAffinity>
-10.65112

$$$$
OCNT-0022301


 29 32  0  0  0  0  0  0  0  0999 V2000
   -6.3560   30.4146    7.1852 N   0  0  0  0  0  0  0  0  0  0  0  0
   -6.5137   29.0110    7.5801 C   0  0  0  0  0  0  0  0  0  0  0  0
   -6.9636   28.1485    6.3990 C   0  0  0  0  0  0  0  0  0  0  0  0
   -6.1962   28.3791    5.0864 C   0  0  0  0  0  0  0  0  0  0  0  0
   -5.8130   29.8479    4.8737 C   0  0  0  0  0  0  0  0  0  0  0  0
   -5.3297   30.5346    6.1457 C   0  0  0  0  0  0  0  0  0  0  0  0
   -5.0676   27.4736    4.8710 N   0  0  0  0  0  0  0  0  0  0  0  0
   -3.8519   27.4133    5.5868 C   0  0  0  0  0  0  0  0  0  0  0  0
   -3.5151   28.0320    6.5803 O   0  0  0  0  0  0  0  0  0  0  0  0
   -3.0399   26.4759    4.9333 N   0  0  0  0  0  0  0  0  0  0  0  0
   -3.7056   25.9960    3.8171 C   0  0  0  0  0  0  0  0  0  0  0  0
   -3.2705   25.0905    2.8763 C   0  0  0  0  0  0  0  0  0  0  0  0
   -4.1472   24.8015    1.8278 C   0  0  0  0  0  0  0  0  0  0  0  0
   -5.4117   25.4208    1.7513 C   0  0  0  0  0  0  0  0  0  0  0  0
   -5.8276   26.3401    2.7234 C   0  0  0  0  0  0  0  0  0  0  0  0
   -4.9551   26.6112    3.7573 C   0  0  0  0  0  0  0  0  0  0  0  0
   -2.1074   26.2474    5.2350 H   0  0  0  0  0  0  0  0  0  0  0  0
   -6.1062   31.2958    8.3345 C   0  0  0  0  0  0  0  0  0  0  0  0
   -4.8563   31.0140    9.1810 C   0  0  0  0  0  0  0  0  0  0  0  0
   -3.8770   32.1891    9.1012 C   0  0  0  0  0  0  0  0  0  0  0  0
   -2.0313   32.0604   10.6503 O   0  0  0  0  0  0  0  0  0  0  0  0
   -2.4720   31.8030    9.5326 C   0  0  0  0  0  0  0  0  0  0  0  0
   -1.6004   31.0705    8.5616 C   0  0  0  0  0  0  0  0  0  0  0  0
   -1.8002   31.1362    7.1750 C   0  0  0  0  0  0  0  0  0  0  0  0
   -0.9562   30.4307    6.3116 C   0  0  0  0  0  0  0  0  0  0  0  0
    0.0799   29.6635    6.8322 C   0  0  0  0  0  0  0  0  0  0  0  0
    0.8841   28.9905    5.9997 F   0  0  0  0  0  0  0  0  0  0  0  0
    0.2908   29.5849    8.2026 C   0  0  0  0  0  0  0  0  0  0  0  0
   -0.5498   30.2877    9.0683 C   0  0  0  0  0  0  0  0  0  0  0  0
 21 22  2  0  0  0
 22 20  1  0  0  0
 20 19  1  0  0  0
 19 18  1  0  0  0
 18  1  1  0  0  0
  1  2  1  0  0  0
  2  3  1  0  0  0
  3  4  1  0  0  0
  4  7  1  0  0  0
  7  8  1  0  0  0
  8  9  2  0  0  0
  8 10  1  0  0  0
 10 11  1  0  0  0
 11 12  2  0  0  0
 12 13  1  0  0  0
 13 14  2  0  0  0
 14 15  1  0  0  0
 15 16  2  0  0  0
  4  5  1  0  0  0
  5  6  1  0  0  0
 22 23  1  0  0  0
 23 24  1  0  0  0
 24 25  2  0  0  0
 25 26  1  0  0  0
 26 27  1  0  0  0
 26 28  2  0  0  0
 28 29  1  0  0  0
  6  1  1  0  0  0
 29 23  2  0  0  0
 16  7  1  0  0  0
 16 11  1  0  0  0
 10 17  1  0  0  0
M  END
> <minimizedAffinity>
-9.42196

$$$$
OCNT-0022303


 23 26  0  0  0  0  0  0  0  0999 V2000
   -5.3404   34.6123    7.9189 Cl  0  0  0  0  0  0  0  0  0  0  0  0
   -4.4265   33.2126    8.3259 C   0  0  0  0  0  0  0  0  0  0  0  0
   -3.6659   33.2001    9.4944 C   0  0  0  0  0  0  0  0  0  0  0  0
   -2.9212   32.0666    9.8223 C   0  0  0  0  0  0  0  0  0  0  0  0
   -2.9373   30.9537    8.9764 C   0  0  0  0  0  0  0  0  0  0  0  0
   -2.1686   29.8794    9.3468 O   0  0  0  0  0  0  0  0  0  0  0  0
   -1.1975   29.5725    8.4218 C   0  0  0  0  0  0  0  0  0  0  0  0
    0.1311   29.6414    8.8544 C   0  0  0  0  0  0  0  0  0  0  0  0
    1.1655   29.3512    7.9673 C   0  0  0  0  0  0  0  0  0  0  0  0
    0.8687   28.9795    6.6578 C   0  0  0  0  0  0  0  0  0  0  0  0
   -0.4629   28.8911    6.2412 C   0  0  0  0  0  0  0  0  0  0  0  0
   -1.5161   29.1884    7.1132 C   0  0  0  0  0  0  0  0  0  0  0  0
   -2.8199   28.9850    6.6397 N   0  0  0  0  0  0  0  0  0  0  0  0
   -3.8366   29.7410    6.9516 C   0  0  0  0  0  0  0  0  0  0  0  0
   -3.7275   30.9526    7.8262 C   0  0  0  0  0  0  0  0  0  0  0  0
   -4.4624   32.0978    7.4910 C   0  0  0  0  0  0  0  0  0  0  0  0
   -5.1033   29.4288    6.4329 N   0  0  0  0  0  0  0  0  0  0  0  0
   -6.1461   28.9848    7.3966 C   0  0  0  0  0  0  0  0  0  0  0  0
   -7.3162   28.2535    6.7055 C   0  0  0  0  0  0  0  0  0  0  0  0
   -6.9158   27.0692    5.9249 N   0  0  0  0  0  0  0  0  0  0  0  0
   -5.5922   27.2659    5.2972 C   0  0  0  0  0  0  0  0  0  0  0  0
   -5.1853   28.7414    5.1236 C   0  0  0  0  0  0  0  0  0  0  0  0
   -7.6157   26.8983    5.2041 H   0  0  0  0  0  0  0  0  0  0  0  0
  1  2  1  0  0  0
  2  3  1  0  0  0
  3  4  2  0  0  0
  4  5  1  0  0  0
  5  6  1  0  0  0
  6  7  1  0  0  0
  7  8  2  0  0  0
  8  9  1  0  0  0
  9 10  2  0  0  0
 10 11  1  0  0  0
 11 12  2  0  0  0
 12 13  1  0  0  0
 13 14  2  0  0  0
 14 17  1  0  0  0
 17 18  1  0  0  0
 18 19  1  0  0  0
 19 20  1  0  0  0
 20 21  1  0  0  0
 21 22  1  0  0  0
 14 15  1  0  0  0
 15 16  1  0  0  0
 16  2  2  0  0  0
 15  5  2  0  0  0
 12  7  1  0  0  0
 22 17  1  0  0  0
 20 23  1  0  0  0
M  END
> <minimizedAffinity>
-9.19347

$$$$
OCNT-0022315


 30 33  0  0  0  0  0  0  0  0999 V2000
   -2.3547   25.9318    5.1471 C   0  0  0  0  0  0  0  0  0  0  0  0
   -5.2568   24.7484    2.6128 N   0  0  0  0  0  0  0  0  0  0  0  0
   -3.9230   25.2833    2.2627 C   0  0  0  0  0  0  0  0  0  0  0  0
   -3.5646   26.5256    3.1124 C   0  0  0  0  0  0  0  0  0  0  0  0
   -3.6499   26.3515    4.5814 N   0  0  0  0  0  0  0  0  0  0  0  0
   -4.7297   25.3961    4.9343 C   0  0  0  0  0  0  0  0  0  0  0  0
   -5.8375   25.2547    3.8645 C   0  0  0  0  0  0  0  0  0  0  0  0
   -6.6965   23.0162    1.6083 C   0  0  0  0  0  0  0  0  0  0  0  0
   -6.0642   24.2821    1.5742 C   0  0  0  0  0  0  0  0  0  0  0  0
   -6.3138   25.0614    0.4303 C   0  0  0  0  0  0  0  0  0  0  0  0
   -7.1025   24.5960   -0.6317 C   0  0  0  0  0  0  0  0  0  0  0  0
   -7.6681   23.3275   -0.5817 C   0  0  0  0  0  0  0  0  0  0  0  0
   -7.4609   22.5330    0.5383 C   0  0  0  0  0  0  0  0  0  0  0  0
   -5.5883   21.1979    2.4510 C   0  0  0  0  0  0  0  0  0  0  0  0
   -6.5926   22.1818    2.7010 O   0  0  0  0  0  0  0  0  0  0  0  0
   -1.9614   26.6669    6.4492 C   0  0  0  0  0  0  0  0  0  0  0  0
   -0.5280   26.7153    6.5382 O   0  0  0  0  0  0  0  0  0  0  0  0
   -0.2468   27.4389    5.9453 H   0  0  0  0  0  0  0  0  0  0  0  0
   -2.5180   28.0974    6.5200 C   0  0  0  0  0  0  0  0  0  0  0  0
   -2.7837   28.4049    7.8948 O   0  0  0  0  0  0  0  0  0  0  0  0
   -2.2770   29.5801    8.3961 C   0  0  0  0  0  0  0  0  0  0  0  0
   -0.9231   29.7862    8.6802 C   0  0  0  0  0  0  0  0  0  0  0  0
   -0.4869   31.0131    9.1769 C   0  0  0  0  0  0  0  0  0  0  0  0
   -1.3974   32.0450    9.3894 C   0  0  0  0  0  0  0  0  0  0  0  0
   -2.7593   31.8682    9.1084 C   0  0  0  0  0  0  0  0  0  0  0  0
   -3.6745   32.9129    9.3238 C   0  0  0  0  0  0  0  0  0  0  0  0
   -5.0319   32.7462    9.0487 C   0  0  0  0  0  0  0  0  0  0  0  0
   -5.4922   31.5325    8.5533 C   0  0  0  0  0  0  0  0  0  0  0  0
   -4.5942   30.4853    8.3346 C   0  0  0  0  0  0  0  0  0  0  0  0
   -3.2143   30.6251    8.6041 C   0  0  0  0  0  0  0  0  0  0  0  0
 14 15  1  0  0  0
 15  8  1  0  0  0
  8  9  1  0  0  0
  9  2  1  0  0  0
  2  3  1  0  0  0
  3  4  1  0  0  0
  4  5  1  0  0  0
  5  1  1  0  0  0
  1 16  1  0  0  0
 16 17  1  0  0  0
 16 19  1  0  0  0
 19 20  1  0  0  0
 20 21  1  0  0  0
 21 22  2  0  0  0
 22 23  1  0  0  0
 23 24  2  0  0  0
 24 25  1  0  0  0
 25 26  2  0  0  0
 26 27  1  0  0  0
 27 28  2  0  0  0
 28 29  1  0  0  0
 29 30  2  0  0  0
  5  6  1  0  0  0
  6  7  1  0  0  0
  9 10  2  0  0  0
 10 11  1  0  0  0
 11 12  2  0  0  0
 12 13  1  0  0  0
 13  8  2  0  0  0
  7  2  1  0  0  0
 30 21  1  0  0  0
 30 25  1  0  0  0
 17 18  1  0  0  0
M  END
> <minimizedAffinity>
-10.77487

$$$$
OCNT-0022317


 39 41  0  0  0  0  0  0  0  0999 V2000
   -6.1370   27.6742    5.1614 C   0  0  0  0  0  0  0  0  0  0  0  0
   -6.0150   26.3477    4.4462 C   0  0  0  0  0  0  0  0  0  0  0  0
   -5.7236   26.3013    3.0710 C   0  0  0  0  0  0  0  0  0  0  0  0
   -5.5878   25.0772    2.3806 C   0  0  0  0  0  0  0  0  0  0  0  0
   -5.7640   23.8749    3.0614 C   0  0  0  0  0  0  0  0  0  0  0  0
   -6.0436   23.9497    4.4433 C   0  0  0  0  0  0  0  0  0  0  0  0
   -6.1692   25.1473    5.1406 C   0  0  0  0  0  0  0  0  0  0  0  0
   -6.1172   22.5767    5.0247 C   0  0  0  0  0  0  0  0  0  0  0  0
   -6.2800   21.7618    3.7411 C   0  0  0  0  0  0  0  0  0  0  0  0
   -5.6354   22.5302    2.6573 N   0  0  0  0  0  0  0  0  0  0  0  0
   -5.2029   25.1952    0.9624 C   0  0  0  0  0  0  0  0  0  0  0  0
   -3.8797   24.9621    0.7021 N   0  0  0  0  0  0  0  0  0  0  0  0
   -5.9889   25.5175    0.0827 O   0  0  0  0  0  0  0  0  0  0  0  0
   -3.2859   24.5100    1.3834 H   0  0  0  0  0  0  0  0  0  0  0  0
   -3.6026   24.9426   -0.2702 H   0  0  0  0  0  0  0  0  0  0  0  0
   -5.9146   22.0943    1.2866 C   0  0  0  0  0  0  0  0  0  0  0  0
   -7.4085   22.1950    0.9792 C   0  0  0  0  0  0  0  0  0  0  0  0
   -7.6739   22.7123   -0.4315 C   0  0  0  0  0  0  0  0  0  0  0  0
   -8.2096   24.0330   -0.3686 O   0  0  0  0  0  0  0  0  0  0  0  0
   -7.5658   24.5833    0.1082 H   0  0  0  0  0  0  0  0  0  0  0  0
   -6.2876   29.7022    3.6194 C   0  0  0  0  0  0  0  0  0  0  0  0
   -5.3805   28.8728    4.5351 C   0  0  0  0  0  0  0  0  0  0  0  0
   -4.7598   29.6995    5.5905 N   0  0  0  0  0  0  0  0  0  0  0  0
   -3.7709   29.4482    5.6495 H   0  0  0  0  0  0  0  0  0  0  0  0
   -5.3735   29.5450    6.9198 C   0  0  0  0  0  0  0  0  0  0  0  0
   -4.3966   29.6829    8.1063 C   0  0  0  0  0  0  0  0  0  0  0  0
   -3.4632   28.6076    8.2050 O   0  0  0  0  0  0  0  0  0  0  0  0
   -2.1472   28.8346    7.9124 C   0  0  0  0  0  0  0  0  0  0  0  0
   -1.6578   28.1978    6.7597 C   0  0  0  0  0  0  0  0  0  0  0  0
   -0.3322   28.3655    6.3557 C   0  0  0  0  0  0  0  0  0  0  0  0
    0.5324   29.1310    7.1343 C   0  0  0  0  0  0  0  0  0  0  0  0
    0.0638   29.7415    8.2989 C   0  0  0  0  0  0  0  0  0  0  0  0
   -1.2708   29.5948    8.6877 C   0  0  0  0  0  0  0  0  0  0  0  0
   -2.5302   27.4811    5.9806 O   0  0  0  0  0  0  0  0  0  0  0  0
   -1.9770   26.2316    5.5358 C   0  0  0  0  0  0  0  0  0  0  0  0
   -2.0253   25.9853    4.0315 C   0  0  0  0  0  0  0  0  0  0  0  0
   -0.8024   26.0119    3.4620 F   0  0  0  0  0  0  0  0  0  0  0  0
   -2.5440   24.7510    3.7960 F   0  0  0  0  0  0  0  0  0  0  0  0
   -2.8206   26.8705    3.3893 F   0  0  0  0  0  0  0  0  0  0  0  0
 21 22  1  0  0  0
 22  1  1  0  0  0
  1  2  1  0  0  0
  2  3  1  0  0  0
  3  4  2  0  0  0
  4 11  1  0  0  0
 11 12  1  0  0  0
 11 13  2  0  0  0
  4  5  1  0  0  0
  5  6  2  0  0  0
  6  7  1  0  0  0
  6  8  1  0  0  0
  8  9  1  0  0  0
  9 10  1  0  0  0
 10 16  1  0  0  0
 16 17  1  0  0  0
 17 18  1  0  0  0
 18 19  1  0  0  0
 22 23  1  0  0  0
 23 25  1  0  0  0
 25 26  1  0  0  0
 26 27  1  0  0  0
 27 28  1  0  0  0
 28 29  1  0  0  0
 29 34  1  0  0  0
 34 35  1  0  0  0
 35 36  1  0  0  0
 36 37  1  0  0  0
 36 38  1  0  0  0
 36 39  1  0  0  0
 29 30  2  0  0  0
 30 31  1  0  0  0
 31 32  2  0  0  0
 32 33  1  0  0  0
  7  2  2  0  0  0
 33 28  2  0  0  0
 10  5  1  0  0  0
 12 14  1  0  0  0
 12 15  1  0  0  0
 19 20  1  0  0  0
 23 24  1  0  0  0
M  END
> <minimizedAffinity>
-8.88516

$$$$
OCNT-0283087


 23 26  0  0  0  0  0  0  0  0999 V2000
   -5.6064   25.0452    1.9780 C   0  0  0  0  0  0  0  0  0  0  0  0
   -5.7823   24.1958    3.0674 C   0  0  0  0  0  0  0  0  0  0  0  0
   -6.0568   24.7140    4.3411 C   0  0  0  0  0  0  0  0  0  0  0  0
   -6.1489   26.1068    4.5234 C   0  0  0  0  0  0  0  0  0  0  0  0
   -6.4171   26.9331    5.6442 C   0  0  0  0  0  0  0  0  0  0  0  0
   -6.3661   28.2585    5.2416 C   0  0  0  0  0  0  0  0  0  0  0  0
   -6.1300   28.2427    3.8781 N   0  0  0  0  0  0  0  0  0  0  0  0
   -6.0555   29.4295    3.0488 C   0  0  0  0  0  0  0  0  0  0  0  0
   -5.9705   26.9471    3.4255 C   0  0  0  0  0  0  0  0  0  0  0  0
   -5.7011   26.4331    2.1452 C   0  0  0  0  0  0  0  0  0  0  0  0
   -6.6123   29.4630    6.0133 C   0  0  0  0  0  0  0  0  0  0  0  0
   -7.7353   29.9646    6.0485 O   0  0  0  0  0  0  0  0  0  0  0  0
   -5.5437   30.0494    6.6999 N   0  0  0  0  0  0  0  0  0  0  0  0
   -4.1559   29.5639    6.6670 C   0  0  0  0  0  0  0  0  0  0  0  0
   -3.1454   30.7067    6.6870 C   0  0  0  0  0  0  0  0  0  0  0  0
   -3.4784   31.6342    7.7397 N   0  0  0  0  0  0  0  0  0  0  0  0
   -2.6470   32.4749    8.4080 C   0  0  0  0  0  0  0  0  0  0  0  0
   -3.3072   33.1705    9.3071 N   0  0  0  0  0  0  0  0  0  0  0  0
   -4.6136   32.7580    9.2023 C   0  0  0  0  0  0  0  0  0  0  0  0
   -4.7457   31.7921    8.2282 C   0  0  0  0  0  0  0  0  0  0  0  0
   -5.9121   31.0222    7.7325 C   0  0  0  0  0  0  0  0  0  0  0  0
   -6.1481   25.2115   -0.3339 C   0  0  0  0  0  0  0  0  0  0  0  0
   -5.3379   24.6536    0.6926 O   0  0  0  0  0  0  0  0  0  0  0  0
 22 23  1  0  0  0
 23  1  1  0  0  0
  1  2  2  0  0  0
  2  3  1  0  0  0
  3  4  2  0  0  0
  4  5  1  0  0  0
  5  6  2  0  0  0
  6 11  1  0  0  0
 11 12  2  0  0  0
 11 13  1  0  0  0
 13 14  1  0  0  0
 14 15  1  0  0  0
 15 16  1  0  0  0
 16 17  1  0  0  0
 17 18  2  0  0  0
 18 19  1  0  0  0
 19 20  2  0  0  0
 20 21  1  0  0  0
  6  7  1  0  0  0
  7  8  1  0  0  0
  7  9  1  0  0  0
  9 10  2  0  0  0
 10  1  1  0  0  0
  9  4  1  0  0  0
 21 13  1  0  0  0
 20 16  1  0  0  0
M  END
> <minimizedAffinity>
-8.39297

$$$$
OCNT-0381046


 27 28  0  0  0  0  0  0  0  0999 V2000
   -3.4744   30.2931    8.6067 C   0  0  0  0  0  0  0  0  0  0  0  0
   -2.3041   31.0349    8.7872 C   0  0  0  0  0  0  0  0  0  0  0  0
   -2.3728   32.3889    9.1265 C   0  0  0  0  0  0  0  0  0  0  0  0
   -3.6098   33.0047    9.3126 C   0  0  0  0  0  0  0  0  0  0  0  0
   -4.7826   32.2632    9.1773 C   0  0  0  0  0  0  0  0  0  0  0  0
   -4.7141   30.9050    8.8390 C   0  0  0  0  0  0  0  0  0  0  0  0
   -5.9744   30.1320    8.7161 C   0  0  0  0  0  0  0  0  0  0  0  0
   -6.4177   29.5172    9.6832 O   0  0  0  0  0  0  0  0  0  0  0  0
   -6.6386   30.0965    7.3522 C   0  0  0  0  0  0  0  0  0  0  0  0
   -7.0107   28.6740    6.9385 C   0  0  0  0  0  0  0  0  0  0  0  0
   -6.5273   28.3357    5.5483 C   0  0  0  0  0  0  0  0  0  0  0  0
   -6.2464   27.0086    5.1987 C   0  0  0  0  0  0  0  0  0  0  0  0
   -5.8260   26.6904    3.9072 C   0  0  0  0  0  0  0  0  0  0  0  0
   -5.6814   27.6950    2.9529 C   0  0  0  0  0  0  0  0  0  0  0  0
   -5.9595   29.0183    3.2890 C   0  0  0  0  0  0  0  0  0  0  0  0
   -6.3829   29.3380    4.5802 C   0  0  0  0  0  0  0  0  0  0  0  0
   -3.4544   28.9577    8.3227 O   0  0  0  0  0  0  0  0  0  0  0  0
   -3.0423   28.5840    7.0051 C   0  0  0  0  0  0  0  0  0  0  0  0
   -2.7089   27.0879    6.9170 C   0  0  0  0  0  0  0  0  0  0  0  0
   -2.4437   26.5950    8.2392 O   0  0  0  0  0  0  0  0  0  0  0  0
   -2.2676   25.6420    8.1534 H   0  0  0  0  0  0  0  0  0  0  0  0
   -1.5372   26.7365    5.9632 C   0  0  0  0  0  0  0  0  0  0  0  0
   -0.1653   27.0805    6.3690 N   0  0  0  0  0  0  0  0  0  0  0  0
    0.4425   26.2786    6.2044 H   0  0  0  0  0  0  0  0  0  0  0  0
    0.4114   28.2628    5.7346 C   0  0  0  0  0  0  0  0  0  0  0  0
    0.6405   29.0766    8.1392 C   0  0  0  0  0  0  0  0  0  0  0  0
    0.6253   29.4599    6.6666 C   0  0  0  0  0  0  0  0  0  0  0  0
 26 27  1  0  0  0
 27 25  1  0  0  0
 25 23  1  0  0  0
 23 22  1  0  0  0
 22 19  1  0  0  0
 19 20  1  0  0  0
 19 18  1  0  0  0
 18 17  1  0  0  0
 17  1  1  0  0  0
  1  2  2  0  0  0
  2  3  1  0  0  0
  3  4  2  0  0  0
  4  5  1  0  0  0
  5  6  2  0  0  0
  6  7  1  0  0  0
  7  8  2  0  0  0
  7  9  1  0  0  0
  9 10  1  0  0  0
 10 11  1  0  0  0
 11 12  2  0  0  0
 12 13  1  0  0  0
 13 14  2  0  0  0
 14 15  1  0  0  0
 15 16  2  0  0  0
  6  1  1  0  0  0
 16 11  1  0  0  0
 23 24  1  0  0  0
 20 21  1  0  0  0
M  END
> <minimizedAffinity>
-8.45646

$$$$
OCNT-0476550


 29 31  0  0  0  0  0  0  0  0999 V2000
   -4.2471   27.5989    5.6680 C   0  0  0  0  0  0  0  0  0  0  0  0
   -2.9127   27.6478    6.1518 C   0  0  0  0  0  0  0  0  0  0  0  0
   -2.5260   28.3563    7.3189 C   0  0  0  0  0  0  0  0  0  0  0  0
   -1.2044   28.3658    7.7595 C   0  0  0  0  0  0  0  0  0  0  0  0
   -0.2523   27.6698    7.0251 C   0  0  0  0  0  0  0  0  0  0  0  0
   -0.6215   26.9822    5.8663 C   0  0  0  0  0  0  0  0  0  0  0  0
   -1.9324   26.9631    5.4144 C   0  0  0  0  0  0  0  0  0  0  0  0
   -2.2041   26.2910    4.2873 N   0  0  0  0  0  0  0  0  0  0  0  0
   -3.4552   26.2720    3.8114 C   0  0  0  0  0  0  0  0  0  0  0  0
   -4.5341   26.9141    4.4531 C   0  0  0  0  0  0  0  0  0  0  0  0
   -5.8146   26.8448    3.8460 C   0  0  0  0  0  0  0  0  0  0  0  0
   -6.0165   26.1492    2.6549 C   0  0  0  0  0  0  0  0  0  0  0  0
   -4.9408   25.5173    2.0516 C   0  0  0  0  0  0  0  0  0  0  0  0
   -5.1712   24.6533    0.5822 Cl  0  0  0  0  0  0  0  0  0  0  0  0
   -3.6760   25.5830    2.6281 C   0  0  0  0  0  0  0  0  0  0  0  0
   -5.2818   28.2220    6.4426 N   0  0  0  0  0  0  0  0  0  0  0  0
   -4.9237   28.3074    7.3929 H   0  0  0  0  0  0  0  0  0  0  0  0
   -5.7002   29.5508    5.9328 C   0  0  0  0  0  0  0  0  0  0  0  0
   -7.2276   29.6495    5.8605 C   0  0  0  0  0  0  0  0  0  0  0  0
   -5.1773   30.6478    6.8862 C   0  0  0  0  0  0  0  0  0  0  0  0
   -5.5554   30.4015    8.3526 C   0  0  0  0  0  0  0  0  0  0  0  0
   -4.5624   31.0865    9.3031 C   0  0  0  0  0  0  0  0  0  0  0  0
   -3.9251   32.2480    8.6509 N   0  0  0  0  0  0  0  0  0  0  0  0
   -2.0232   31.8991   10.2167 C   0  0  0  0  0  0  0  0  0  0  0  0
   -2.4556   32.1722    8.7792 C   0  0  0  0  0  0  0  0  0  0  0  0
   -4.4296   33.5121    9.2232 C   0  0  0  0  0  0  0  0  0  0  0  0
   -4.9962   34.4372    8.1495 C   0  0  0  0  0  0  0  0  0  0  0  0
   -0.7255   29.0051    8.8675 O   0  0  0  0  0  0  0  0  0  0  0  0
    0.6098   29.4905    8.8012 C   0  0  0  0  0  0  0  0  0  0  0  0
 24 25  1  0  0  0
 25 23  1  0  0  0
 23 26  1  0  0  0
 26 27  1  0  0  0
 23 22  1  0  0  0
 22 21  1  0  0  0
 21 20  1  0  0  0
 20 18  1  0  0  0
 18 19  1  0  0  0
 18 16  1  0  0  0
 16  1  1  0  0  0
  1  2  1  0  0  0
  2  3  2  0  0  0
  3  4  1  0  0  0
  4 28  1  0  0  0
 28 29  1  0  0  0
  4  5  2  0  0  0
  5  6  1  0  0  0
  6  7  2  0  0  0
  7  8  1  0  0  0
  8  9  2  0  0  0
  9 10  1  0  0  0
 10 11  1  0  0  0
 11 12  2  0  0  0
 12 13  1  0  0  0
 13 14  1  0  0  0
 13 15  2  0  0  0
 10  1  2  0  0  0
  7  2  1  0  0  0
 15  9  1  0  0  0
 16 17  1  0  0  0
M  END
> <minimizedAffinity>
-8.58477

$$$$
OCNT-0476578


 20 22  0  0  0  0  0  0  0  0999 V2000
   -5.3913   25.2471    2.3184 C   0  0  0  0  0  0  0  0  0  0  0  0
   -4.0934   24.7628    2.5318 C   0  0  0  0  0  0  0  0  0  0  0  0
   -3.2648   25.2756    3.5388 C   0  0  0  0  0  0  0  0  0  0  0  0
   -3.6919   26.3069    4.3732 C   0  0  0  0  0  0  0  0  0  0  0  0
   -2.7835   26.7485    5.3446 N   0  0  0  0  0  0  0  0  0  0  0  0
   -3.0752   27.7156    6.1486 C   0  0  0  0  0  0  0  0  0  0  0  0
   -2.0195   28.0886    7.1210 C   0  0  0  0  0  0  0  0  0  0  0  0
   -2.1520   29.0793    8.0067 C   0  0  0  0  0  0  0  0  0  0  0  0
   -3.3969   29.8951    8.0858 C   0  0  0  0  0  0  0  0  0  0  0  0
   -3.5387   30.8750    8.9354 N   0  0  0  0  0  0  0  0  0  0  0  0
   -4.8271   31.6235    9.0997 C   0  0  0  0  0  0  0  0  0  0  0  0
   -2.4241   31.3410    9.8231 C   0  0  0  0  0  0  0  0  0  0  0  0
   -4.4687   29.5039    7.1211 C   0  0  0  0  0  0  0  0  0  0  0  0
   -4.3303   28.5089    6.2308 C   0  0  0  0  0  0  0  0  0  0  0  0
   -5.6369   28.1485    5.1655 S   0  0  0  0  0  0  0  0  0  0  0  0
   -4.9721   26.8242    4.1807 C   0  0  0  0  0  0  0  0  0  0  0  0
   -5.7962   26.2959    3.1645 C   0  0  0  0  0  0  0  0  0  0  0  0
   -6.1173   25.3169   -0.0440 C   0  0  0  0  0  0  0  0  0  0  0  0
   -6.2161   24.7546    1.3032 N   0  0  0  0  0  0  0  0  0  0  0  0
   -6.6813   23.3691    1.3728 C   0  0  0  0  0  0  0  0  0  0  0  0
 18 19  1  0  0  0
 19 20  1  0  0  0
 19  1  1  0  0  0
  1  2  1  0  0  0
  2  3  2  0  0  0
  3  4  1  0  0  0
  4  5  1  0  0  0
  5  6  2  0  0  0
  6  7  1  0  0  0
  7  8  2  0  0  0
  8  9  1  0  0  0
  9 10  2  0  0  0
 10 11  1  0  0  0
 10 12  1  0  0  0
  9 13  1  0  0  0
 13 14  2  0  0  0
 14 15  1  0  0  0
 15 16  1  0  0  0
 16 17  1  0  0  0
 17  1  2  0  0  0
 16  4  2  0  0  0
 14  6  1  0  0  0
M  CHG 1  10   1
M  END
> <minimizedAffinity>
-7.79799

$$$$
OCNT-0477348


 22 24  0  0  0  0  0  0  0  0999 V2000
   -5.2238   25.0417    2.5372 N   0  0  0  0  0  0  0  0  0  0  0  0
   -5.7893   23.7577    2.3180 C   0  0  0  0  0  0  0  0  0  0  0  0
   -6.6269   23.0760    3.2266 C   0  0  0  0  0  0  0  0  0  0  0  0
   -7.1863   21.8254    2.8617 C   0  0  0  0  0  0  0  0  0  0  0  0
   -6.9224   21.2323    1.6322 C   0  0  0  0  0  0  0  0  0  0  0  0
   -6.1089   21.8896    0.7287 C   0  0  0  0  0  0  0  0  0  0  0  0
   -5.5652   23.1317    1.0663 C   0  0  0  0  0  0  0  0  0  0  0  0
   -7.0191   23.5742    4.5996 C   0  0  0  0  0  0  0  0  0  0  0  0
   -5.9995   24.4515    5.3085 C   0  0  0  0  0  0  0  0  0  0  0  0
   -6.0288   25.8414    4.7410 C   0  0  0  0  0  0  0  0  0  0  0  0
   -6.4245   26.9155    5.5599 C   0  0  0  0  0  0  0  0  0  0  0  0
   -6.4760   28.2136    5.0561 C   0  0  0  0  0  0  0  0  0  0  0  0
   -6.1356   28.4433    3.7300 C   0  0  0  0  0  0  0  0  0  0  0  0
   -6.2042   30.0406    3.0931 Cl  0  0  0  0  0  0  0  0  0  0  0  0
   -5.7367   27.3875    2.9129 C   0  0  0  0  0  0  0  0  0  0  0  0
   -5.6676   26.0700    3.4058 C   0  0  0  0  0  0  0  0  0  0  0  0
   -3.7843   25.1951    2.1878 C   0  0  0  0  0  0  0  0  0  0  0  0
   -2.8707   24.9354    3.3938 C   0  0  0  0  0  0  0  0  0  0  0  0
   -2.0503   26.1874    3.7275 C   0  0  0  0  0  0  0  0  0  0  0  0
   -0.8872   26.5780    5.7990 C   0  0  0  0  0  0  0  0  0  0  0  0
   -0.8326   25.8949    4.5034 N   0  0  0  0  0  0  0  0  0  0  0  0
    0.3859   26.2871    3.7915 C   0  0  0  0  0  0  0  0  0  0  0  0
 20 21  1  0  0  0
 21 22  1  0  0  0
 21 19  1  0  0  0
 19 18  1  0  0  0
 18 17  1  0  0  0
 17  1  1  0  0  0
  1  2  1  0  0  0
  2  3  1  0  0  0
  3  4  2  0  0  0
  4  5  1  0  0  0
  5  6  2  0  0  0
  6  7  1  0  0  0
  3  8  1  0  0  0
  8  9  1  0  0  0
  9 10  1  0  0  0
 10 11  1  0  0  0
 11 12  2  0  0  0
 12 13  1  0  0  0
 13 14  1  0  0  0
 13 15  2  0  0  0
 15 16  1  0  0  0
 16  1  1  0  0  0
  7  2  2  0  0  0
 16 10  2  0  0  0
M  END
> <minimizedAffinity>
-8.28278

$$$$
OCNT-0477587


 21 22  0  0  0  0  0  0  0  0999 V2000
   -6.1835   23.0387    1.7004 C   0  0  0  0  0  0  0  0  0  0  0  0
   -6.6226   24.3889    1.0776 C   0  0  0  0  0  0  0  0  0  0  0  0
   -7.6228   24.0196   -0.0153 C   0  0  0  0  0  0  0  0  0  0  0  0
   -7.2283   22.6227   -0.4804 C   0  0  0  0  0  0  0  0  0  0  0  0
   -6.0455   22.2160    0.3949 C   0  0  0  0  0  0  0  0  0  0  0  0
   -7.2047   22.5223    2.7264 C   0  0  0  0  0  0  0  0  0  0  0  0
   -7.6508   21.1908    2.7572 C   0  0  0  0  0  0  0  0  0  0  0  0
   -8.5697   20.7562    3.7179 C   0  0  0  0  0  0  0  0  0  0  0  0
   -9.0560   21.6408    4.6744 C   0  0  0  0  0  0  0  0  0  0  0  0
   -8.6186   22.9607    4.6761 C   0  0  0  0  0  0  0  0  0  0  0  0
   -7.7008   23.3942    3.7168 C   0  0  0  0  0  0  0  0  0  0  0  0
   -4.7955   23.1195    2.3533 C   0  0  0  0  0  0  0  0  0  0  0  0
   -4.2881   22.2199    3.0122 O   0  0  0  0  0  0  0  0  0  0  0  0
   -4.2140   24.3349    2.1415 O   0  0  0  0  0  0  0  0  0  0  0  0
   -3.2261   24.7048    3.1183 C   0  0  0  0  0  0  0  0  0  0  0  0
   -3.2297   26.2363    3.2467 C   0  0  0  0  0  0  0  0  0  0  0  0
   -3.6241   26.8101    4.5482 N   0  0  0  0  0  0  0  0  0  0  0  0
   -5.8672   27.2474    3.5297 C   0  0  0  0  0  0  0  0  0  0  0  0
   -5.0849   26.7338    4.7347 C   0  0  0  0  0  0  0  0  0  0  0  0
   -2.8916   26.2450    5.6933 C   0  0  0  0  0  0  0  0  0  0  0  0
   -1.4187   26.6434    5.7362 C   0  0  0  0  0  0  0  0  0  0  0  0
 18 19  1  0  0  0
 19 17  1  0  0  0
 17 20  1  0  0  0
 20 21  1  0  0  0
 17 16  1  0  0  0
 16 15  1  0  0  0
 15 14  1  0  0  0
 14 12  1  0  0  0
 12 13  2  0  0  0
 12  1  1  0  0  0
  1  6  1  0  0  0
  6  7  2  0  0  0
  7  8  1  0  0  0
  8  9  2  0  0  0
  9 10  1  0  0  0
 10 11  2  0  0  0
  1  2  1  0  0  0
  2  3  1  0  0  0
  3  4  1  0  0  0
  4  5  1  0  0  0
  5  1  1  0  0  0
 11  6  1  0  0  0
M  END
> <minimizedAffinity>
-7.18139

$$$$
OCNT-0478484


 21 23  0  0  0  0  0  0  0  0999 V2000
   -3.2244   30.8084    7.4149 N   0  0  0  0  0  0  0  0  0  0  0  0
   -3.7454   32.0258    7.9711 C   0  0  0  0  0  0  0  0  0  0  0  0
   -3.4555   32.4741    9.2729 C   0  0  0  0  0  0  0  0  0  0  0  0
   -4.0571   33.6442    9.7930 C   0  0  0  0  0  0  0  0  0  0  0  0
   -4.9278   34.4093    9.0291 C   0  0  0  0  0  0  0  0  0  0  0  0
   -5.1995   34.0181    7.7317 C   0  0  0  0  0  0  0  0  0  0  0  0
   -4.6159   32.8532    7.2193 C   0  0  0  0  0  0  0  0  0  0  0  0
   -2.4730   31.7597   10.1511 C   0  0  0  0  0  0  0  0  0  0  0  0
   -1.1258   31.7549    9.4527 C   0  0  0  0  0  0  0  0  0  0  0  0
   -0.9828   30.5620    8.5446 C   0  0  0  0  0  0  0  0  0  0  0  0
   -1.9954   30.1082    7.6662 C   0  0  0  0  0  0  0  0  0  0  0  0
   -1.6931   28.8941    6.9928 C   0  0  0  0  0  0  0  0  0  0  0  0
   -0.4772   28.2086    7.1221 C   0  0  0  0  0  0  0  0  0  0  0  0
    0.5102   28.7111    7.9427 C   0  0  0  0  0  0  0  0  0  0  0  0
    0.2569   29.8768    8.6486 C   0  0  0  0  0  0  0  0  0  0  0  0
   -4.2216   30.1083    6.5468 C   0  0  0  0  0  0  0  0  0  0  0  0
   -5.2136   29.2623    7.3682 C   0  0  0  0  0  0  0  0  0  0  0  0
   -6.5686   29.1233    6.6719 C   0  0  0  0  0  0  0  0  0  0  0  0
   -6.1821   27.1795    5.3059 C   0  0  0  0  0  0  0  0  0  0  0  0
   -6.9055   27.7164    6.4524 N   0  0  0  0  0  0  0  0  0  0  0  0
   -6.6561   27.1755    7.2812 H   0  0  0  0  0  0  0  0  0  0  0  0
 19 20  1  0  0  0
 20 18  1  0  0  0
 18 17  1  0  0  0
 17 16  1  0  0  0
 16  1  1  0  0  0
  1  2  1  0  0  0
  2  3  1  0  0  0
  3  4  2  0  0  0
  4  5  1  0  0  0
  5  6  2  0  0  0
  6  7  1  0  0  0
  3  8  1  0  0  0
  8  9  1  0  0  0
  9 10  1  0  0  0
 10 11  1  0  0  0
 11 12  2  0  0  0
 12 13  1  0  0  0
 13 14  2  0  0  0
 14 15  1  0  0  0
 11  1  1  0  0  0
  7  2  2  0  0  0
 15 10  2  0  0  0
 20 21  1  0  0  0
M  END
> <minimizedAffinity>
-8.75608

$$$$
OCNT-0478585


 17 19  0  0  0  0  0  0  0  0999 V2000
   -3.8917   31.0264    5.6955 N   0  0  0  0  0  0  0  0  0  0  0  0
   -3.3729   31.2626    6.9932 C   0  0  0  0  0  0  0  0  0  0  0  0
   -4.0054   32.2143    7.8011 C   0  0  0  0  0  0  0  0  0  0  0  0
   -5.3114   32.8814    7.4576 C   0  0  0  0  0  0  0  0  0  0  0  0
   -5.3030   34.3658    7.8385 C   0  0  0  0  0  0  0  0  0  0  0  0
   -4.6423   34.6834    9.1876 C   0  0  0  0  0  0  0  0  0  0  0  0
   -4.1682   33.4528    9.9568 C   0  0  0  0  0  0  0  0  0  0  0  0
   -3.4405   32.5033    9.0419 C   0  0  0  0  0  0  0  0  0  0  0  0
   -2.2882   31.9597    9.4850 N   0  0  0  0  0  0  0  0  0  0  0  0
   -1.6403   31.1064    8.6800 C   0  0  0  0  0  0  0  0  0  0  0  0
   -2.1231   30.7258    7.4066 C   0  0  0  0  0  0  0  0  0  0  0  0
   -1.3387   29.8374    6.6276 C   0  0  0  0  0  0  0  0  0  0  0  0
   -0.1265   29.3332    7.0993 C   0  0  0  0  0  0  0  0  0  0  0  0
    0.3264   29.7066    8.3552 C   0  0  0  0  0  0  0  0  0  0  0  0
   -0.4330   30.5867    9.1275 C   0  0  0  0  0  0  0  0  0  0  0  0
   -3.6352   30.1154    5.3302 H   0  0  0  0  0  0  0  0  0  0  0  0
   -3.5757   31.7540    5.0567 H   0  0  0  0  0  0  0  0  0  0  0  0
  1  2  1  0  0  0
  2  3  2  0  0  0
  3  4  1  0  0  0
  4  5  1  0  0  0
  5  6  1  0  0  0
  6  7  1  0  0  0
  7  8  1  0  0  0
  8  9  2  0  0  0
  9 10  1  0  0  0
 10 11  1  0  0  0
 11 12  2  0  0  0
 12 13  1  0  0  0
 13 14  2  0  0  0
 14 15  1  0  0  0
 11  2  1  0  0  0
  8  3  1  0  0  0
 15 10  2  0  0  0
  1 16  1  0  0  0
  1 17  1  0  0  0
M  END
> <minimizedAffinity>
-8.24871

$$$$
OCNT-0483502


 27 30  0  0  0  0  0  0  0  0999 V2000
   -6.7375   29.6615    5.7205 C   0  0  0  0  0  0  0  0  0  0  0  0
   -6.1248   30.1325    3.0301 O   0  0  0  0  0  0  0  0  0  0  0  0
   -6.1061   28.9541    3.3670 C   0  0  0  0  0  0  0  0  0  0  0  0
   -5.8538   27.9554    2.4382 O   0  0  0  0  0  0  0  0  0  0  0  0
   -5.7735   26.6048    2.8120 C   0  0  0  0  0  0  0  0  0  0  0  0
   -5.5115   25.6810    1.8006 C   0  0  0  0  0  0  0  0  0  0  0  0
   -5.4187   24.3293    2.1223 C   0  0  0  0  0  0  0  0  0  0  0  0
   -5.5882   23.9178    3.4446 C   0  0  0  0  0  0  0  0  0  0  0  0
   -5.8501   24.8588    4.4466 C   0  0  0  0  0  0  0  0  0  0  0  0
   -5.9447   26.2207    4.1367 C   0  0  0  0  0  0  0  0  0  0  0  0
   -6.2185   27.2551    5.1315 C   0  0  0  0  0  0  0  0  0  0  0  0
   -6.3394   26.8056    6.4311 O   0  0  0  0  0  0  0  0  0  0  0  0
   -6.3275   28.5482    4.7786 C   0  0  0  0  0  0  0  0  0  0  0  0
   -6.0586   27.5287    7.0283 H   0  0  0  0  0  0  0  0  0  0  0  0
   -5.6704   30.0513    6.7158 C   0  0  0  0  0  0  0  0  0  0  0  0
   -4.5722   30.7537    6.3922 C   0  0  0  0  0  0  0  0  0  0  0  0
   -4.3643   31.1808    5.0925 O   0  0  0  0  0  0  0  0  0  0  0  0
   -3.5782   31.1163    7.4060 C   0  0  0  0  0  0  0  0  0  0  0  0
   -2.3545   31.7423    7.1321 C   0  0  0  0  0  0  0  0  0  0  0  0
   -1.4806   32.0852    8.1716 C   0  0  0  0  0  0  0  0  0  0  0  0
   -1.8131   31.7993    9.4951 C   0  0  0  0  0  0  0  0  0  0  0  0
   -3.0118   31.1537    9.7809 C   0  0  0  0  0  0  0  0  0  0  0  0
   -3.8692   30.8143    8.7343 C   0  0  0  0  0  0  0  0  0  0  0  0
   -5.0313   30.1044    9.0793 O   0  0  0  0  0  0  0  0  0  0  0  0
   -5.8645   29.5689    8.1074 C   0  0  0  0  0  0  0  0  0  0  0  0
   -6.7111   28.7314    8.3964 O   0  0  0  0  0  0  0  0  0  0  0  0
   -3.8818   32.0278    5.1280 H   0  0  0  0  0  0  0  0  0  0  0  0
  2  3  2  0  0  0
  3  4  1  0  0  0
  4  5  1  0  0  0
  5  6  2  0  0  0
  6  7  1  0  0  0
  7  8  2  0  0  0
  8  9  1  0  0  0
  9 10  2  0  0  0
 10 11  1  0  0  0
 11 12  1  0  0  0
 11 13  2  0  0  0
 13  1  1  0  0  0
  1 15  1  0  0  0
 15 16  2  0  0  0
 16 17  1  0  0  0
 16 18  1  0  0  0
 18 19  2  0  0  0
 19 20  1  0  0  0
 20 21  2  0  0  0
 21 22  1  0  0  0
 22 23  2  0  0  0
 23 24  1  0  0  0
 24 25  1  0  0  0
 25 26  2  0  0  0
 13  3  1  0  0  0
 25 15  1  0  0  0
 10  5  1  0  0  0
 23 18  1  0  0  0
 12 14  1  0  0  0
 17 27  1  0  0  0
M  END
> <minimizedAffinity>
-10.05835

$$$$
OCNT-0483505


 16 18  0  0  0  0  0  0  0  0999 V2000
   -3.4853   30.5303    7.1612 C   0  0  0  0  0  0  0  0  0  0  0  0
   -2.2050   30.0346    7.4682 C   0  0  0  0  0  0  0  0  0  0  0  0
   -1.7591   28.8964    6.7451 O   0  0  0  0  0  0  0  0  0  0  0  0
   -0.5172   28.3227    6.9628 C   0  0  0  0  0  0  0  0  0  0  0  0
   -0.1217   27.3410    6.3455 O   0  0  0  0  0  0  0  0  0  0  0  0
    0.3290   28.9533    7.9893 C   0  0  0  0  0  0  0  0  0  0  0  0
   -0.0645   30.0241    8.6844 C   0  0  0  0  0  0  0  0  0  0  0  0
   -1.3749   30.6072    8.4354 C   0  0  0  0  0  0  0  0  0  0  0  0
   -1.8109   31.7298    9.1508 C   0  0  0  0  0  0  0  0  0  0  0  0
   -3.0865   32.2602    8.8765 C   0  0  0  0  0  0  0  0  0  0  0  0
   -3.8810   31.6547    7.9010 C   0  0  0  0  0  0  0  0  0  0  0  0
   -5.0656   32.3312    7.8045 O   0  0  0  0  0  0  0  0  0  0  0  0
   -5.0331   33.3498    8.6987 C   0  0  0  0  0  0  0  0  0  0  0  0
   -3.8421   33.3524    9.3826 C   0  0  0  0  0  0  0  0  0  0  0  0
   -5.2402   29.0075    6.6216 C   0  0  0  0  0  0  0  0  0  0  0  0
   -4.1933   29.8600    6.1797 O   0  0  0  0  0  0  0  0  0  0  0  0
 15 16  1  0  0  0
 16  1  1  0  0  0
  1  2  1  0  0  0
  2  3  1  0  0  0
  3  4  1  0  0  0
  4  5  2  0  0  0
  4  6  1  0  0  0
  6  7  2  0  0  0
  7  8  1  0  0  0
  8  9  1  0  0  0
  9 10  2  0  0  0
 10 11  1  0  0  0
 11 12  1  0  0  0
 12 13  1  0  0  0
 13 14  2  0  0  0
 11  1  2  0  0  0
  8  2  2  0  0  0
 14 10  1  0  0  0
M  END
> <minimizedAffinity>
-7.27772

$$$$
OCNT-0493312


 27 30  0  0  0  0  0  0  0  0999 V2000
    0.8806   27.2165    4.0481 C   0  0  0  0  0  0  0  0  0  0  0  0
    1.6054   28.0710    4.5431 O   0  0  0  0  0  0  0  0  0  0  0  0
   -0.2955   26.7717    4.6182 N   0  0  0  0  0  0  0  0  0  0  0  0
   -0.7456   27.3172    5.8913 C   0  0  0  0  0  0  0  0  0  0  0  0
   -2.2564   27.5923    5.9022 C   0  0  0  0  0  0  0  0  0  0  0  0
   -3.1078   26.4477    5.3505 C   0  0  0  0  0  0  0  0  0  0  0  0
   -4.4608   26.5363    5.2085 C   0  0  0  0  0  0  0  0  0  0  0  0
   -5.2055   25.4115    4.5950 C   0  0  0  0  0  0  0  0  0  0  0  0
   -5.4220   24.2190    5.2987 C   0  0  0  0  0  0  0  0  0  0  0  0
   -6.1272   23.1726    4.7030 C   0  0  0  0  0  0  0  0  0  0  0  0
   -6.6235   23.3227    3.4095 C   0  0  0  0  0  0  0  0  0  0  0  0
   -7.4931   22.0318    2.6752 Cl  0  0  0  0  0  0  0  0  0  0  0  0
   -6.4301   24.5127    2.7068 C   0  0  0  0  0  0  0  0  0  0  0  0
   -5.7245   25.5695    3.2983 C   0  0  0  0  0  0  0  0  0  0  0  0
   -5.5420   26.8843    2.5814 C   0  0  0  0  0  0  0  0  0  0  0  0
   -6.3541   28.0106    3.2323 C   0  0  0  0  0  0  0  0  0  0  0  0
   -6.0402   28.4452    4.6501 C   0  0  0  0  0  0  0  0  0  0  0  0
   -6.6958   29.6007    5.1136 C   0  0  0  0  0  0  0  0  0  0  0  0
   -6.5014   30.0550    6.4119 C   0  0  0  0  0  0  0  0  0  0  0  0
   -5.6559   29.3339    7.2276 C   0  0  0  0  0  0  0  0  0  0  0  0
   -5.0080   28.2202    6.8320 N   0  0  0  0  0  0  0  0  0  0  0  0
   -5.1924   27.7888    5.5548 C   0  0  0  0  0  0  0  0  0  0  0  0
   -2.2674   25.2587    4.9031 C   0  0  0  0  0  0  0  0  0  0  0  0
   -1.0995   25.7107    4.0187 C   0  0  0  0  0  0  0  0  0  0  0  0
    1.1393   26.5962    2.8632 O   0  0  0  0  0  0  0  0  0  0  0  0
    2.4096   24.6519    3.5469 C   0  0  0  0  0  0  0  0  0  0  0  0
    2.4144   25.9480    2.7582 C   0  0  0  0  0  0  0  0  0  0  0  0
 26 27  1  0  0  0
 27 25  1  0  0  0
 25  1  1  0  0  0
  1  2  2  0  0  0
  1  3  1  0  0  0
  3  4  1  0  0  0
  4  5  1  0  0  0
  5  6  1  0  0  0
  6  7  2  0  0  0
  7  8  1  0  0  0
  8  9  1  0  0  0
  9 10  2  0  0  0
 10 11  1  0  0  0
 11 12  1  0  0  0
 11 13  2  0  0  0
 13 14  1  0  0  0
 14 15  1  0  0  0
 15 16  1  0  0  0
 16 17  1  0  0  0
 17 18  1  0  0  0
 18 19  2  0  0  0
 19 20  1  0  0  0
 20 21  2  0  0  0
 21 22  1  0  0  0
  6 23  1  0  0  0
 23 24  1  0  0  0
 24  3  1  0  0  0
 22  7  1  0  0  0
 14  8  2  0  0  0
 22 17  2  0  0  0
M  END
> <minimizedAffinity>
-8.00915

$$$$
OCNT-0493664


 24 26  0  0  0  0  0  0  0  0999 V2000
   -1.6721   26.0044    4.1553 C   0  0  0  0  0  0  0  0  0  0  0  0
   -2.8264   26.6889    4.8138 C   0  0  0  0  0  0  0  0  0  0  0  0
   -4.1092   26.7317    4.4180 C   0  0  0  0  0  0  0  0  0  0  0  0
   -4.7936   27.6704    5.3642 C   0  0  0  0  0  0  0  0  0  0  0  0
   -5.9690   27.9805    5.2233 O   0  0  0  0  0  0  0  0  0  0  0  0
   -3.8286   28.0932    6.2797 N   0  0  0  0  0  0  0  0  0  0  0  0
   -2.5923   27.4494    5.9783 N   0  0  0  0  0  0  0  0  0  0  0  0
   -2.0071   26.7405    7.1331 C   0  0  0  0  0  0  0  0  0  0  0  0
   -3.8771   29.2933    7.0352 C   0  0  0  0  0  0  0  0  0  0  0  0
   -4.2067   29.2708    8.3974 C   0  0  0  0  0  0  0  0  0  0  0  0
   -4.2521   30.4507    9.1479 C   0  0  0  0  0  0  0  0  0  0  0  0
   -3.9731   31.6738    8.5455 C   0  0  0  0  0  0  0  0  0  0  0  0
   -3.6520   31.7182    7.1925 C   0  0  0  0  0  0  0  0  0  0  0  0
   -3.6056   30.5373    6.4446 C   0  0  0  0  0  0  0  0  0  0  0  0
   -4.8353   26.1696    3.4013 N   0  0  0  0  0  0  0  0  0  0  0  0
   -5.1813   24.8487    3.2239 C   0  0  0  0  0  0  0  0  0  0  0  0
   -4.9719   23.9411    4.0190 O   0  0  0  0  0  0  0  0  0  0  0  0
   -5.2962   26.8647    2.8188 H   0  0  0  0  0  0  0  0  0  0  0  0
   -5.9304   24.5446    1.9783 C   0  0  0  0  0  0  0  0  0  0  0  0
   -5.8931   25.3545    0.8393 C   0  0  0  0  0  0  0  0  0  0  0  0
   -6.6281   24.9849   -0.2866 C   0  0  0  0  0  0  0  0  0  0  0  0
   -7.3697   23.8147   -0.2377 C   0  0  0  0  0  0  0  0  0  0  0  0
   -7.4170   23.0033    0.8402 N   0  0  0  0  0  0  0  0  0  0  0  0
   -6.6895   23.3814    1.9218 C   0  0  0  0  0  0  0  0  0  0  0  0
  1  2  1  0  0  0
  2  3  2  0  0  0
  3 15  1  0  0  0
 15 16  1  0  0  0
 16 17  2  0  0  0
 16 19  1  0  0  0
 19 20  1  0  0  0
 20 21  2  0  0  0
 21 22  1  0  0  0
 22 23  2  0  0  0
 23 24  1  0  0  0
  3  4  1  0  0  0
  4  5  2  0  0  0
  4  6  1  0  0  0
  6  9  1  0  0  0
  9 10  2  0  0  0
 10 11  1  0  0  0
 11 12  2  0  0  0
 12 13  1  0  0  0
 13 14  2  0  0  0
  6  7  1  0  0  0
  7  8  1  0  0  0
  7  2  1  0  0  0
 24 19  2  0  0  0
 14  9  1  0  0  0
 15 18  1  0  0  0
M  END
> <minimizedAffinity>
-8.41434

$$$$
OCNT-0493764


 27 28  0  0  0  0  0  0  0  0999 V2000
   -3.7247   28.2672    5.7989 N   0  0  0  0  0  0  0  0  0  0  0  0
   -3.5224   28.7268    6.6890 H   0  0  0  0  0  0  0  0  0  0  0  0
   -5.1515   27.9128    5.7834 C   0  0  0  0  0  0  0  0  0  0  0  0
   -5.7354   27.9490    4.3595 C   0  0  0  0  0  0  0  0  0  0  0  0
   -6.0357   24.0467    2.5100 C   0  0  0  0  0  0  0  0  0  0  0  0
   -6.2392   24.1986    3.8852 C   0  0  0  0  0  0  0  0  0  0  0  0
   -6.1467   25.4595    4.4796 C   0  0  0  0  0  0  0  0  0  0  0  0
   -5.8497   26.5879    3.7099 C   0  0  0  0  0  0  0  0  0  0  0  0
   -5.6459   26.4370    2.3299 C   0  0  0  0  0  0  0  0  0  0  0  0
   -5.7350   25.1771    1.7241 C   0  0  0  0  0  0  0  0  0  0  0  0
   -7.3148   22.1126    1.9330 C   0  0  0  0  0  0  0  0  0  0  0  0
   -6.1034   22.8478    1.8433 O   0  0  0  0  0  0  0  0  0  0  0  0
   -5.5458   24.9459    0.3832 O   0  0  0  0  0  0  0  0  0  0  0  0
   -6.5687   25.3633   -0.5086 C   0  0  0  0  0  0  0  0  0  0  0  0
   -2.8476   27.0870    5.6889 C   0  0  0  0  0  0  0  0  0  0  0  0
   -1.8033   26.9260    6.8131 C   0  0  0  0  0  0  0  0  0  0  0  0
   -2.4552   26.5657    8.0435 O   0  0  0  0  0  0  0  0  0  0  0  0
   -1.7577   26.5969    8.7261 H   0  0  0  0  0  0  0  0  0  0  0  0
   -1.0475   28.2434    7.0423 C   0  0  0  0  0  0  0  0  0  0  0  0
   -1.1778   28.5787    8.4304 O   0  0  0  0  0  0  0  0  0  0  0  0
   -1.7457   29.7872    8.7274 C   0  0  0  0  0  0  0  0  0  0  0  0
   -0.8321   30.8048    9.0098 C   0  0  0  0  0  0  0  0  0  0  0  0
   -1.2752   32.0860    9.3371 C   0  0  0  0  0  0  0  0  0  0  0  0
   -2.6410   32.3591    9.3810 C   0  0  0  0  0  0  0  0  0  0  0  0
   -3.5706   31.3549    9.0879 C   0  0  0  0  0  0  0  0  0  0  0  0
   -5.0421   31.6385    9.1694 C   0  0  0  0  0  0  0  0  0  0  0  0
   -3.1138   30.0644    8.7738 C   0  0  0  0  0  0  0  0  0  0  0  0
 11 12  1  0  0  0
 12  5  1  0  0  0
  5  6  1  0  0  0
  6  7  2  0  0  0
  7  8  1  0  0  0
  8  4  1  0  0  0
  4  3  1  0  0  0
  3  1  1  0  0  0
  1 15  1  0  0  0
 15 16  1  0  0  0
 16 17  1  0  0  0
 16 19  1  0  0  0
 19 20  1  0  0  0
 20 21  1  0  0  0
 21 22  1  0  0  0
 22 23  2  0  0  0
 23 24  1  0  0  0
 24 25  2  0  0  0
 25 26  1  0  0  0
 25 27  1  0  0  0
  8  9  2  0  0  0
  9 10  1  0  0  0
 10 13  1  0  0  0
 13 14  1  0  0  0
 10  5  2  0  0  0
 27 21  2  0  0  0
  1  2  1  0  0  0
 17 18  1  0  0  0
M  END
> <minimizedAffinity>
-8.47216

$$$$
OCNT-0493927


 22 24  0  0  0  0  0  0  0  0999 V2000
   -7.2670   23.6123   -0.6504 O   0  0  0  0  0  0  0  0  0  0  0  0
   -7.0951   23.5528    0.5605 C   0  0  0  0  0  0  0  0  0  0  0  0
   -7.5834   22.5096    1.2937 N   0  0  0  0  0  0  0  0  0  0  0  0
   -7.5160   22.4244    2.6767 C   0  0  0  0  0  0  0  0  0  0  0  0
   -8.2462   21.4482    3.3547 C   0  0  0  0  0  0  0  0  0  0  0  0
   -8.1748   21.3784    4.7462 C   0  0  0  0  0  0  0  0  0  0  0  0
   -7.3649   22.2732    5.4424 C   0  0  0  0  0  0  0  0  0  0  0  0
   -7.2671   22.1802    7.1569 Cl  0  0  0  0  0  0  0  0  0  0  0  0
   -6.6206   23.2355    4.7577 C   0  0  0  0  0  0  0  0  0  0  0  0
   -6.6975   23.3228    3.3564 C   0  0  0  0  0  0  0  0  0  0  0  0
   -5.8511   24.2679    2.5174 C   0  0  0  0  0  0  0  0  0  0  0  0
   -6.4879   24.5496    1.2458 O   0  0  0  0  0  0  0  0  0  0  0  0
   -8.1285   21.8421    0.7623 H   0  0  0  0  0  0  0  0  0  0  0  0
   -4.4515   23.6407    2.2547 C   0  0  0  0  0  0  0  0  0  0  0  0
   -4.4720   22.2874    2.3591 F   0  0  0  0  0  0  0  0  0  0  0  0
   -3.5189   24.0892    3.1307 F   0  0  0  0  0  0  0  0  0  0  0  0
   -3.9887   23.9296    1.0122 F   0  0  0  0  0  0  0  0  0  0  0  0
   -5.6987   25.5848    3.1893 C   0  0  0  0  0  0  0  0  0  0  0  0
   -5.5706   26.6502    3.7296 C   0  0  0  0  0  0  0  0  0  0  0  0
   -5.4099   27.9215    4.3696 C   0  0  0  0  0  0  0  0  0  0  0  0
   -6.5737   28.4967    5.1333 C   0  0  0  0  0  0  0  0  0  0  0  0
   -6.1649   29.1049    3.8233 C   0  0  0  0  0  0  0  0  0  0  0  0
  1  2  2  0  0  0
  2  3  1  0  0  0
  3  4  1  0  0  0
  4  5  1  0  0  0
  5  6  2  0  0  0
  6  7  1  0  0  0
  7  8  1  0  0  0
  7  9  2  0  0  0
  9 10  1  0  0  0
 10 11  1  0  0  0
 11 18  1  0  0  0
 18 19  3  0  0  0
 19 20  1  0  0  0
 20 21  1  0  0  0
 21 22  1  0  0  0
 11 14  1  0  0  0
 14 15  1  0  0  0
 14 16  1  0  0  0
 14 17  1  0  0  0
 11 12  1  0  0  0
 12  2  1  0  0  0
 10  4  2  0  0  0
 22 20  1  0  0  0
  3 13  1  0  0  0
M  END
> <minimizedAffinity>
-8.45091

$$$$
OCNT-0493940


 23 25  0  0  0  0  0  0  0  0999 V2000
   -5.4412   25.7687    3.8396 N   0  0  0  0  0  0  0  0  0  0  0  0
   -5.8212   27.0786    4.2218 C   0  0  0  0  0  0  0  0  0  0  0  0
   -5.7849   28.1497    3.3151 C   0  0  0  0  0  0  0  0  0  0  0  0
   -6.1597   29.4420    3.7012 C   0  0  0  0  0  0  0  0  0  0  0  0
   -6.5811   29.6856    5.0057 C   0  0  0  0  0  0  0  0  0  0  0  0
   -6.6295   28.6317    5.9113 C   0  0  0  0  0  0  0  0  0  0  0  0
   -7.0380   28.8245    7.1992 O   0  0  0  0  0  0  0  0  0  0  0  0
   -6.2612   27.3443    5.5301 C   0  0  0  0  0  0  0  0  0  0  0  0
   -7.3153   29.7496    7.2975 H   0  0  0  0  0  0  0  0  0  0  0  0
   -7.5385   22.8067   -0.6504 C   0  0  0  0  0  0  0  0  0  0  0  0
   -6.9618   23.5697    0.5041 C   0  0  0  0  0  0  0  0  0  0  0  0
   -6.2640   24.7601    0.3030 C   0  0  0  0  0  0  0  0  0  0  0  0
   -5.7550   25.4844    1.3920 C   0  0  0  0  0  0  0  0  0  0  0  0
   -5.9270   25.0507    2.7175 C   0  0  0  0  0  0  0  0  0  0  0  0
   -6.6481   23.8557    2.8941 C   0  0  0  0  0  0  0  0  0  0  0  0
   -7.1585   23.1265    1.8133 C   0  0  0  0  0  0  0  0  0  0  0  0
   -4.5147   25.0733    4.7641 C   0  0  0  0  0  0  0  0  0  0  0  0
   -3.1233   25.7049    4.7865 C   0  0  0  0  0  0  0  0  0  0  0  0
   -2.5503   26.0226    5.9256 N   0  0  0  0  0  0  0  0  0  0  0  0
   -1.2151   26.5547    5.5177 C   0  0  0  0  0  0  0  0  0  0  0  0
   -1.0013   26.1004    4.0712 C   0  0  0  0  0  0  0  0  0  0  0  0
   -2.3647   25.9133    3.6562 N   0  0  0  0  0  0  0  0  0  0  0  0
   -2.5666   25.3219    2.8552 H   0  0  0  0  0  0  0  0  0  0  0  0
 10 11  1  0  0  0
 11 12  1  0  0  0
 12 13  2  0  0  0
 13 14  1  0  0  0
 14  1  1  0  0  0
  1 17  1  0  0  0
 17 18  1  0  0  0
 18 19  2  0  0  0
 19 20  1  0  0  0
 20 21  1  0  0  0
 21 22  1  0  0  0
  1  2  1  0  0  0
  2  3  2  0  0  0
  3  4  1  0  0  0
  4  5  2  0  0  0
  5  6  1  0  0  0
  6  7  1  0  0  0
  6  8  2  0  0  0
 14 15  2  0  0  0
 15 16  1  0  0  0
 16 11  2  0  0  0
 22 18  1  0  0  0
  8  2  1  0  0  0
 22 23  1  0  0  0
  7  9  1  0  0  0
M  END
> <minimizedAffinity>
-8.67166

$$$$
OCNT-0493990


 35 37  0  0  0  0  0  0  0  0999 V2000
   -0.6914   28.2876    7.4421 C   0  0  0  0  0  0  0  0  0  0  0  0
   -0.0130   28.2521    6.2269 C   0  0  0  0  0  0  0  0  0  0  0  0
   -0.4383   27.3883    5.2118 C   0  0  0  0  0  0  0  0  0  0  0  0
   -1.5286   26.5386    5.4141 C   0  0  0  0  0  0  0  0  0  0  0  0
   -2.1923   26.5707    6.6491 C   0  0  0  0  0  0  0  0  0  0  0  0
   -1.7719   27.4349    7.6646 C   0  0  0  0  0  0  0  0  0  0  0  0
   -2.0240   25.6452    4.4412 N   0  0  0  0  0  0  0  0  0  0  0  0
   -3.3335   25.5171    4.0009 C   0  0  0  0  0  0  0  0  0  0  0  0
   -4.2656   26.2324    4.3408 O   0  0  0  0  0  0  0  0  0  0  0  0
   -3.4377   24.4509    3.1170 N   0  0  0  0  0  0  0  0  0  0  0  0
   -1.3282   25.1533    3.9020 H   0  0  0  0  0  0  0  0  0  0  0  0
   -2.6808   23.7848    3.1473 H   0  0  0  0  0  0  0  0  0  0  0  0
   -4.5674   24.0743    2.3620 C   0  0  0  0  0  0  0  0  0  0  0  0
   -4.7510   24.7045    1.1281 C   0  0  0  0  0  0  0  0  0  0  0  0
   -5.8516   24.3895    0.3280 C   0  0  0  0  0  0  0  0  0  0  0  0
   -6.7872   23.4448    0.7556 C   0  0  0  0  0  0  0  0  0  0  0  0
   -8.1175   23.1127   -0.2923 Cl  0  0  0  0  0  0  0  0  0  0  0  0
   -6.6329   22.8086    1.9913 C   0  0  0  0  0  0  0  0  0  0  0  0
   -5.5143   23.1375    2.7874 C   0  0  0  0  0  0  0  0  0  0  0  0
   -7.6312   21.7944    2.4815 C   0  0  0  0  0  0  0  0  0  0  0  0
   -7.0492   20.7561    3.1440 F   0  0  0  0  0  0  0  0  0  0  0  0
   -8.3561   21.2177    1.4801 F   0  0  0  0  0  0  0  0  0  0  0  0
   -8.5526   22.3241    3.3329 F   0  0  0  0  0  0  0  0  0  0  0  0
   -0.2107   29.1342    8.4134 O   0  0  0  0  0  0  0  0  0  0  0  0
   -3.2493   30.8302    9.3937 C   0  0  0  0  0  0  0  0  0  0  0  0
   -2.4011   29.8333    8.9401 C   0  0  0  0  0  0  0  0  0  0  0  0
   -1.0512   30.1404    8.8335 C   0  0  0  0  0  0  0  0  0  0  0  0
   -0.5862   31.3983    9.2121 C   0  0  0  0  0  0  0  0  0  0  0  0
   -1.5118   32.3275    9.6545 C   0  0  0  0  0  0  0  0  0  0  0  0
   -2.8360   32.0823    9.7490 N   0  0  0  0  0  0  0  0  0  0  0  0
   -6.3749   28.8546   10.1767 C   0  0  0  0  0  0  0  0  0  0  0  0
   -5.0293   29.2739    9.8966 N   0  0  0  0  0  0  0  0  0  0  0  0
   -4.7192   30.5604    9.5095 C   0  0  0  0  0  0  0  0  0  0  0  0
   -5.5506   31.4319    9.2847 O   0  0  0  0  0  0  0  0  0  0  0  0
   -4.2410   28.6822   10.1479 H   0  0  0  0  0  0  0  0  0  0  0  0
 31 32  1  0  0  0
 32 33  1  0  0  0
 33 34  2  0  0  0
 33 25  1  0  0  0
 25 26  2  0  0  0
 26 27  1  0  0  0
 27 24  1  0  0  0
 24  1  1  0  0  0
  1  2  1  0  0  0
  2  3  2  0  0  0
  3  4  1  0  0  0
  4  7  1  0  0  0
  7  8  1  0  0  0
  8  9  2  0  0  0
  8 10  1  0  0  0
 10 13  1  0  0  0
 13 14  1  0  0  0
 14 15  2  0  0  0
 15 16  1  0  0  0
 16 17  1  0  0  0
 16 18  2  0  0  0
 18 20  1  0  0  0
 20 21  1  0  0  0
 20 22  1  0  0  0
 20 23  1  0  0  0
 18 19  1  0  0  0
  4  5  2  0  0  0
  5  6  1  0  0  0
 27 28  2  0  0  0
 28 29  1  0  0  0
 29 30  2  0  0  0
 30 25  1  0  0  0
  6  1  2  0  0  0
 19 13  2  0  0  0
 32 35  1  0  0  0
  7 11  1  0  0  0
 10 12  1  0  0  0
M  END
> <minimizedAffinity>
-10.15120

$$$$
OCNT-0494023


 32 35  0  0  0  0  0  0  0  0999 V2000
   -0.4595   26.6440    4.8705 C   0  0  0  0  0  0  0  0  0  0  0  0
    0.3163   27.5318    5.6265 C   0  0  0  0  0  0  0  0  0  0  0  0
   -0.2050   28.2281    6.7128 C   0  0  0  0  0  0  0  0  0  0  0  0
    0.6029   29.0565    7.3818 N   0  0  0  0  0  0  0  0  0  0  0  0
    0.0706   29.7093    8.4204 C   0  0  0  0  0  0  0  0  0  0  0  0
   -1.1889   29.6045    8.8557 N   0  0  0  0  0  0  0  0  0  0  0  0
   -1.9967   28.7601    8.1878 C   0  0  0  0  0  0  0  0  0  0  0  0
   -1.5476   28.0311    7.0679 C   0  0  0  0  0  0  0  0  0  0  0  0
   -2.3449   27.1452    6.3013 C   0  0  0  0  0  0  0  0  0  0  0  0
   -1.8075   26.4736    5.2029 C   0  0  0  0  0  0  0  0  0  0  0  0
    1.2409   26.3127    3.2306 C   0  0  0  0  0  0  0  0  0  0  0  0
   -0.0070   25.9287    3.7927 O   0  0  0  0  0  0  0  0  0  0  0  0
   -3.3397   28.5823    8.6291 N   0  0  0  0  0  0  0  0  0  0  0  0
   -3.3246   28.3356    9.6158 H   0  0  0  0  0  0  0  0  0  0  0  0
   -4.4724   29.3627    8.3041 C   0  0  0  0  0  0  0  0  0  0  0  0
   -4.9720   30.2654    9.2598 C   0  0  0  0  0  0  0  0  0  0  0  0
   -6.1204   31.0202    9.0050 C   0  0  0  0  0  0  0  0  0  0  0  0
   -6.7953   30.8586    7.7995 C   0  0  0  0  0  0  0  0  0  0  0  0
   -7.8941   31.5945    7.5719 F   0  0  0  0  0  0  0  0  0  0  0  0
   -6.3451   29.9383    6.8578 C   0  0  0  0  0  0  0  0  0  0  0  0
   -7.1996   29.7069    5.3772 Cl  0  0  0  0  0  0  0  0  0  0  0  0
   -5.1967   29.1853    7.1146 C   0  0  0  0  0  0  0  0  0  0  0  0
   -2.5528   25.5729    4.4862 O   0  0  0  0  0  0  0  0  0  0  0  0
   -3.8500   26.0539    4.1115 C   0  0  0  0  0  0  0  0  0  0  0  0
   -3.9972   25.9523    2.5946 C   0  0  0  0  0  0  0  0  0  0  0  0
   -5.4166   25.5341    2.2018 C   0  0  0  0  0  0  0  0  0  0  0  0
   -5.4084   24.5822    1.0851 N   0  0  0  0  0  0  0  0  0  0  0  0
   -6.2523   24.9978   -0.0587 C   0  0  0  0  0  0  0  0  0  0  0  0
   -7.5489   24.1814   -0.2094 C   0  0  0  0  0  0  0  0  0  0  0  0
   -7.3236   22.7734   -0.3393 O   0  0  0  0  0  0  0  0  0  0  0  0
   -6.1563   22.3222    0.3620 C   0  0  0  0  0  0  0  0  0  0  0  0
   -5.7816   23.2266    1.5434 C   0  0  0  0  0  0  0  0  0  0  0  0
 11 12  1  0  0  0
 12  1  1  0  0  0
  1  2  2  0  0  0
  2  3  1  0  0  0
  3  4  2  0  0  0
  4  5  1  0  0  0
  5  6  2  0  0  0
  6  7  1  0  0  0
  7 13  1  0  0  0
 13 15  1  0  0  0
 15 16  1  0  0  0
 16 17  2  0  0  0
 17 18  1  0  0  0
 18 19  1  0  0  0
 18 20  2  0  0  0
 20 21  1  0  0  0
 20 22  1  0  0  0
  7  8  2  0  0  0
  8  9  1  0  0  0
  9 10  2  0  0  0
 10 23  1  0  0  0
 23 24  1  0  0  0
 24 25  1  0  0  0
 25 26  1  0  0  0
 26 27  1  0  0  0
 27 28  1  0  0  0
 28 29  1  0  0  0
 29 30  1  0  0  0
 30 31  1  0  0  0
 31 32  1  0  0  0
 10  1  1  0  0  0
 32 27  1  0  0  0
  8  3  1  0  0  0
 22 15  2  0  0  0
 13 14  1  0  0  0
M  END
> <minimizedAffinity>
-9.22509

$$$$
OCNT-0494139


 28 30  0  0  0  0  0  0  0  0999 V2000
   -6.9224   23.4795    3.6819 C   0  0  0  0  0  0  0  0  0  0  0  0
   -7.3582   22.9207    2.4945 C   0  0  0  0  0  0  0  0  0  0  0  0
   -6.8515   23.7362    1.4618 C   0  0  0  0  0  0  0  0  0  0  0  0
   -6.1302   24.7477    1.9709 N   0  0  0  0  0  0  0  0  0  0  0  0
   -6.0967   24.5459    3.3206 N   0  0  0  0  0  0  0  0  0  0  0  0
   -8.5044   21.8140    8.9786 C   0  0  0  0  0  0  0  0  0  0  0  0
   -8.0849   22.2728    7.6132 C   0  0  0  0  0  0  0  0  0  0  0  0
   -6.8039   21.9812    7.1302 C   0  0  0  0  0  0  0  0  0  0  0  0
   -6.4228   22.3799    5.8464 C   0  0  0  0  0  0  0  0  0  0  0  0
   -7.3180   23.0774    5.0277 C   0  0  0  0  0  0  0  0  0  0  0  0
   -8.6100   23.3417    5.4977 C   0  0  0  0  0  0  0  0  0  0  0  0
   -8.9899   22.9421    6.7815 C   0  0  0  0  0  0  0  0  0  0  0  0
   -5.2593   25.3947    4.1156 C   0  0  0  0  0  0  0  0  0  0  0  0
   -5.7714   26.4390    4.8977 C   0  0  0  0  0  0  0  0  0  0  0  0
   -4.9144   27.2413    5.6610 C   0  0  0  0  0  0  0  0  0  0  0  0
   -3.5396   27.0001    5.6480 C   0  0  0  0  0  0  0  0  0  0  0  0
   -3.0147   25.9451    4.9026 C   0  0  0  0  0  0  0  0  0  0  0  0
   -3.8729   25.1464    4.1412 C   0  0  0  0  0  0  0  0  0  0  0  0
   -2.4637   27.9938    6.6386 S   0  0  0  0  0  0  0  0  0  0  0  0
   -2.5075   27.1885    8.1113 N   0  0  0  0  0  0  0  0  0  0  0  0
   -3.0794   29.2793    6.8698 O   0  0  0  0  0  0  0  0  0  0  0  0
   -1.1097   27.8586    6.1543 O   0  0  0  0  0  0  0  0  0  0  0  0
   -2.9102   27.7970    8.8247 H   0  0  0  0  0  0  0  0  0  0  0  0
   -1.5759   26.8430    8.3431 H   0  0  0  0  0  0  0  0  0  0  0  0
   -7.0840   23.5649   -0.0152 C   0  0  0  0  0  0  0  0  0  0  0  0
   -8.3695   23.2315   -0.3049 F   0  0  0  0  0  0  0  0  0  0  0  0
   -6.8224   24.7121   -0.7026 F   0  0  0  0  0  0  0  0  0  0  0  0
   -6.2897   22.6048   -0.5586 F   0  0  0  0  0  0  0  0  0  0  0  0
  6  7  1  0  0  0
  7  8  1  0  0  0
  8  9  2  0  0  0
  9 10  1  0  0  0
 10  1  1  0  0  0
  1  2  2  0  0  0
  2  3  1  0  0  0
  3 25  1  0  0  0
 25 26  1  0  0  0
 25 27  1  0  0  0
 25 28  1  0  0  0
  3  4  2  0  0  0
  4  5  1  0  0  0
  5 13  1  0  0  0
 13 14  1  0  0  0
 14 15  2  0  0  0
 15 16  1  0  0  0
 16 19  1  0  0  0
 19 20  1  0  0  0
 19 21  2  0  0  0
 19 22  2  0  0  0
 16 17  2  0  0  0
 17 18  1  0  0  0
 10 11  2  0  0  0
 11 12  1  0  0  0
 12  7  2  0  0  0
  5  1  1  0  0  0
 18 13  2  0  0  0
 20 23  1  0  0  0
 20 24  1  0  0  0
M  END
> <minimizedAffinity>
-9.91382

$$$$
OCNT-0494161


 25 28  0  0  0  0  0  0  0  0999 V2000
   -4.6016   28.8416    6.5152 C   0  0  0  0  0  0  0  0  0  0  0  0
   -5.6456   28.0980    7.1699 O   0  0  0  0  0  0  0  0  0  0  0  0
   -5.8255   27.3208    6.6120 H   0  0  0  0  0  0  0  0  0  0  0  0
   -3.5369   27.8575    6.0436 C   0  0  0  0  0  0  0  0  0  0  0  0
   -2.3575   27.7541    6.8000 C   0  0  0  0  0  0  0  0  0  0  0  0
   -1.3804   26.8654    6.4055 C   0  0  0  0  0  0  0  0  0  0  0  0
   -1.4870   26.0764    5.3221 N   0  0  0  0  0  0  0  0  0  0  0  0
   -2.5966   26.1746    4.5748 C   0  0  0  0  0  0  0  0  0  0  0  0
   -2.6813   25.3632    3.4548 C   0  0  0  0  0  0  0  0  0  0  0  0
   -3.7886   25.3916    2.6067 C   0  0  0  0  0  0  0  0  0  0  0  0
   -4.8452   26.2526    2.8689 C   0  0  0  0  0  0  0  0  0  0  0  0
   -4.7836   27.0718    3.9975 C   0  0  0  0  0  0  0  0  0  0  0  0
   -3.6668   27.0535    4.8758 C   0  0  0  0  0  0  0  0  0  0  0  0
   -5.8681   26.1979    1.9645 O   0  0  0  0  0  0  0  0  0  0  0  0
   -5.7794   25.2101    0.9457 C   0  0  0  0  0  0  0  0  0  0  0  0
   -3.5383   31.9703    9.4503 C   0  0  0  0  0  0  0  0  0  0  0  0
   -3.6128   32.2483    7.9181 C   0  0  0  0  0  0  0  0  0  0  0  0
   -4.5362   31.3151    7.2200 N   0  0  0  0  0  0  0  0  0  0  0  0
   -5.8947   31.5061    7.7736 C   0  0  0  0  0  0  0  0  0  0  0  0
   -5.9325   31.3366    9.2991 C   0  0  0  0  0  0  0  0  0  0  0  0
   -4.5563   30.8454    9.7838 C   0  0  0  0  0  0  0  0  0  0  0  0
   -4.2592   29.5653    8.9767 C   0  0  0  0  0  0  0  0  0  0  0  0
   -4.0403   29.9283    7.4877 C   0  0  0  0  0  0  0  0  0  0  0  0
   -1.0524   31.4017    9.1874 C   0  0  0  0  0  0  0  0  0  0  0  0
   -2.1102   31.7778    9.9179 C   0  0  0  0  0  0  0  0  0  0  0  0
 24 25  2  0  0  0
 25 16  1  0  0  0
 16 17  1  0  0  0
 17 18  1  0  0  0
 18 19  1  0  0  0
 19 20  1  0  0  0
 20 21  1  0  0  0
 21 22  1  0  0  0
 22 23  1  0  0  0
 23  1  1  0  0  0
  1  2  1  0  0  0
  1  4  1  0  0  0
  4  5  2  0  0  0
  5  6  1  0  0  0
  6  7  2  0  0  0
  7  8  1  0  0  0
  8  9  2  0  0  0
  9 10  1  0  0  0
 10 11  2  0  0  0
 11 14  1  0  0  0
 14 15  1  0  0  0
 11 12  1  0  0  0
 12 13  2  0  0  0
 21 16  1  0  0  0
 13  4  1  0  0  0
 23 18  1  0  0  0
 13  8  1  0  0  0
  2  3  1  0  0  0
M  END
> <minimizedAffinity>
-8.83811

$$$$
OCNT-0494166


 24 27  0  0  0  0  0  0  0  0999 V2000
   -4.5527   25.6364    2.3088 C   0  0  0  0  0  0  0  0  0  0  0  0
   -3.1695   25.9329    2.2843 O   0  0  0  0  0  0  0  0  0  0  0  0
   -5.0118   25.1882    0.8881 C   0  0  0  0  0  0  0  0  0  0  0  0
   -6.0769   24.0825    1.0861 C   0  0  0  0  0  0  0  0  0  0  0  0
   -6.3246   24.1089    2.5847 C   0  0  0  0  0  0  0  0  0  0  0  0
   -7.0117   22.9793    3.3309 C   0  0  0  0  0  0  0  0  0  0  0  0
   -8.2082   22.3480    2.6244 C   0  0  0  0  0  0  0  0  0  0  0  0
   -8.7334   21.1841    3.4689 C   0  0  0  0  0  0  0  0  0  0  0  0
   -8.9935   21.5539    4.9160 C   0  0  0  0  0  0  0  0  0  0  0  0
  -10.1134   21.1139    5.5166 C   0  0  0  0  0  0  0  0  0  0  0  0
  -10.3491   21.3294    6.9622 C   0  0  0  0  0  0  0  0  0  0  0  0
  -11.4096   20.9682    7.4652 O   0  0  0  0  0  0  0  0  0  0  0  0
   -9.2205   21.9030    7.7764 C   0  0  0  0  0  0  0  0  0  0  0  0
   -8.4665   22.9499    6.9723 C   0  0  0  0  0  0  0  0  0  0  0  0
   -7.9350   22.4040    5.6302 C   0  0  0  0  0  0  0  0  0  0  0  0
   -7.4773   23.5593    4.6955 C   0  0  0  0  0  0  0  0  0  0  0  0
   -6.4802   24.6011    5.2843 C   0  0  0  0  0  0  0  0  0  0  0  0
   -5.0465   24.5835    4.7287 C   0  0  0  0  0  0  0  0  0  0  0  0
   -4.9162   24.3977    3.1923 C   0  0  0  0  0  0  0  0  0  0  0  0
   -2.9466   26.3165    3.1494 H   0  0  0  0  0  0  0  0  0  0  0  0
   -5.8147   27.8844    3.0541 C   0  0  0  0  0  0  0  0  0  0  0  0
   -5.2568   26.8753    2.7159 C   0  0  0  0  0  0  0  0  0  0  0  0
   -3.8930   23.2109    2.9503 C   0  0  0  0  0  0  0  0  0  0  0  0
   -4.3362   21.8123    3.3843 C   0  0  0  0  0  0  0  0  0  0  0  0
 21 22  3  0  0  0
  1 22  1  0  0  0
  1  2  1  0  0  0
  1  3  1  0  0  0
  3  4  1  0  0  0
  4  5  1  0  0  0
  5  6  1  0  0  0
  6  7  1  0  0  0
  7  8  1  0  0  0
  8  9  1  0  0  0
  9 10  2  0  0  0
 10 11  1  0  0  0
 11 12  2  0  0  0
 11 13  1  0  0  0
 13 14  1  0  0  0
 14 15  1  0  0  0
 15 16  1  0  0  0
 16 17  1  0  0  0
 17 18  1  0  0  0
 18 19  1  0  0  0
 19 23  1  0  0  0
 23 24  1  0  0  0
 19  1  1  0  0  0
 19  5  1  0  0  0
 16  6  1  0  0  0
 15  9  1  0  0  0
  2 20  1  0  0  0
M  END
> <minimizedAffinity>
-8.96471

$$$$
OCNT-0494811


 19 20  0  0  0  0  0  0  0  0999 V2000
   -6.0467   29.3355    4.7525 O   0  0  0  0  0  0  0  0  0  0  0  0
   -6.0981   28.2186    5.2550 C   0  0  0  0  0  0  0  0  0  0  0  0
   -6.2840   27.9986    6.6045 N   0  0  0  0  0  0  0  0  0  0  0  0
   -6.6793   27.1082    6.8790 H   0  0  0  0  0  0  0  0  0  0  0  0
   -6.0023   27.0052    4.3947 C   0  0  0  0  0  0  0  0  0  0  0  0
   -6.1581   25.7117    4.9122 C   0  0  0  0  0  0  0  0  0  0  0  0
   -6.0563   24.6024    4.0665 C   0  0  0  0  0  0  0  0  0  0  0  0
   -5.7924   24.7843    2.7093 C   0  0  0  0  0  0  0  0  0  0  0  0
   -5.6684   23.4167    1.6733 Cl  0  0  0  0  0  0  0  0  0  0  0  0
   -5.6219   26.0655    2.1883 C   0  0  0  0  0  0  0  0  0  0  0  0
   -5.7225   27.1753    3.0315 C   0  0  0  0  0  0  0  0  0  0  0  0
   -6.6202   29.1014    7.4901 C   0  0  0  0  0  0  0  0  0  0  0  0
   -5.6998   29.1301    8.7260 C   0  0  0  0  0  0  0  0  0  0  0  0
   -4.6279   30.1427    8.6069 N   0  0  0  0  0  0  0  0  0  0  0  0
   -4.9993   31.1639    7.6015 C   0  0  0  0  0  0  0  0  0  0  0  0
   -3.7713   31.9362    7.0989 C   0  0  0  0  0  0  0  0  0  0  0  0
   -2.8333   31.1008    6.4063 O   0  0  0  0  0  0  0  0  0  0  0  0
   -2.8925   29.7288    6.8153 C   0  0  0  0  0  0  0  0  0  0  0  0
   -3.3082   29.5549    8.2857 C   0  0  0  0  0  0  0  0  0  0  0  0
  1  2  2  0  0  0
  2  3  1  0  0  0
  3 12  1  0  0  0
 12 13  1  0  0  0
 13 14  1  0  0  0
 14 15  1  0  0  0
 15 16  1  0  0  0
 16 17  1  0  0  0
 17 18  1  0  0  0
 18 19  1  0  0  0
  2  5  1  0  0  0
  5  6  1  0  0  0
  6  7  2  0  0  0
  7  8  1  0  0  0
  8  9  1  0  0  0
  8 10  2  0  0  0
 10 11  1  0  0  0
 19 14  1  0  0  0
 11  5  2  0  0  0
  3  4  1  0  0  0
M  END
> <minimizedAffinity>
-6.91180

$$$$
OCNT-0495153


 28 31  0  0  0  0  0  0  0  0999 V2000
   -5.1282   27.9142    4.9508 N   0  0  0  0  0  0  0  0  0  0  0  0
   -3.9130   27.0920    4.9780 C   0  0  0  0  0  0  0  0  0  0  0  0
   -4.1736   25.5602    5.0113 C   0  0  0  0  0  0  0  0  0  0  0  0
   -5.4282   25.1802    4.3323 N   0  0  0  0  0  0  0  0  0  0  0  0
   -6.5596   25.8646    5.0119 C   0  0  0  0  0  0  0  0  0  0  0  0
   -6.2362   27.2534    5.6325 C   0  0  0  0  0  0  0  0  0  0  0  0
   -4.9276   29.3232    5.2870 C   0  0  0  0  0  0  0  0  0  0  0  0
   -6.6292   30.8391    9.7977 C   0  0  0  0  0  0  0  0  0  0  0  0
   -5.4932   30.4059    8.9192 C   0  0  0  0  0  0  0  0  0  0  0  0
   -4.2059   30.2588    9.4459 C   0  0  0  0  0  0  0  0  0  0  0  0
   -3.1565   29.8318    8.6332 C   0  0  0  0  0  0  0  0  0  0  0  0
   -3.3875   29.5344    7.2901 C   0  0  0  0  0  0  0  0  0  0  0  0
   -4.6734   29.6508    6.7443 C   0  0  0  0  0  0  0  0  0  0  0  0
   -5.7192   30.0907    7.5722 C   0  0  0  0  0  0  0  0  0  0  0  0
   -5.6211   23.7047    4.2778 C   0  0  0  0  0  0  0  0  0  0  0  0
   -6.7406   23.1984    5.2017 C   0  0  0  0  0  0  0  0  0  0  0  0
   -6.4156   22.5686    6.4161 C   0  0  0  0  0  0  0  0  0  0  0  0
   -7.4195   22.0848    7.2593 C   0  0  0  0  0  0  0  0  0  0  0  0
   -8.7569   22.2214    6.8943 C   0  0  0  0  0  0  0  0  0  0  0  0
   -9.9912   21.6265    7.9353 Cl  0  0  0  0  0  0  0  0  0  0  0  0
   -9.1007   22.8357    5.6934 C   0  0  0  0  0  0  0  0  0  0  0  0
   -8.0974   23.3187    4.8503 C   0  0  0  0  0  0  0  0  0  0  0  0
   -5.8564   23.1679    2.8591 C   0  0  0  0  0  0  0  0  0  0  0  0
   -6.2278   24.0152    1.8003 C   0  0  0  0  0  0  0  0  0  0  0  0
   -6.4570   23.5037    0.5219 C   0  0  0  0  0  0  0  0  0  0  0  0
   -6.3252   22.1377    0.2837 C   0  0  0  0  0  0  0  0  0  0  0  0
   -5.9656   21.2816    1.3225 C   0  0  0  0  0  0  0  0  0  0  0  0
   -5.7352   21.7914    2.6021 C   0  0  0  0  0  0  0  0  0  0  0  0
  8  9  1  0  0  0
  9 10  1  0  0  0
 10 11  2  0  0  0
 11 12  1  0  0  0
 12 13  2  0  0  0
 13  7  1  0  0  0
  7  1  1  0  0  0
  1  2  1  0  0  0
  2  3  1  0  0  0
  3  4  1  0  0  0
  4 15  1  0  0  0
 15 23  1  0  0  0
 23 24  2  0  0  0
 24 25  1  0  0  0
 25 26  2  0  0  0
 26 27  1  0  0  0
 27 28  2  0  0  0
 15 16  1  0  0  0
 16 17  1  0  0  0
 17 18  2  0  0  0
 18 19  1  0  0  0
 19 20  1  0  0  0
 19 21  2  0  0  0
 21 22  1  0  0  0
  4  5  1  0  0  0
  5  6  1  0  0  0
 13 14  1  0  0  0
 14  9  2  0  0  0
  6  1  1  0  0  0
 28 23  1  0  0  0
 22 16  2  0  0  0
M  END
> <minimizedAffinity>
-9.43550

$$$$
OCNT-0495216


 27 28  0  0  0  0  0  0  0  0999 V2000
   -5.4552   25.3007    3.0361 C   0  0  0  0  0  0  0  0  0  0  0  0
   -5.7112   24.2831    4.0353 O   0  0  0  0  0  0  0  0  0  0  0  0
   -4.8852   24.1877    4.5490 H   0  0  0  0  0  0  0  0  0  0  0  0
   -6.1287   24.7306    1.7796 C   0  0  0  0  0  0  0  0  0  0  0  0
   -6.7242   23.4522    1.8281 C   0  0  0  0  0  0  0  0  0  0  0  0
   -7.3611   22.8993    0.7139 C   0  0  0  0  0  0  0  0  0  0  0  0
   -7.4372   23.6196   -0.4722 C   0  0  0  0  0  0  0  0  0  0  0  0
   -6.8883   24.8955   -0.5378 C   0  0  0  0  0  0  0  0  0  0  0  0
   -6.2508   25.4486    0.5787 C   0  0  0  0  0  0  0  0  0  0  0  0
   -6.0342   26.6369    3.6176 C   0  0  0  0  0  0  0  0  0  0  0  0
   -5.9964   26.6823    5.1658 C   0  0  0  0  0  0  0  0  0  0  0  0
   -6.6648   27.9449    5.7115 C   0  0  0  0  0  0  0  0  0  0  0  0
   -6.0615   29.2122    5.1168 C   0  0  0  0  0  0  0  0  0  0  0  0
   -6.0669   29.1750    3.5926 C   0  0  0  0  0  0  0  0  0  0  0  0
   -5.3752   27.9186    3.0640 C   0  0  0  0  0  0  0  0  0  0  0  0
   -3.9144   25.4195    2.8680 C   0  0  0  0  0  0  0  0  0  0  0  0
   -3.3876   25.6395    1.7789 O   0  0  0  0  0  0  0  0  0  0  0  0
   -3.2484   25.2597    4.0408 O   0  0  0  0  0  0  0  0  0  0  0  0
   -2.1259   26.1263    4.2409 C   0  0  0  0  0  0  0  0  0  0  0  0
   -2.5580   27.6298    6.4015 C   0  0  0  0  0  0  0  0  0  0  0  0
   -2.3560   26.9611    5.4237 C   0  0  0  0  0  0  0  0  0  0  0  0
   -2.8264   28.4246    7.6094 C   0  0  0  0  0  0  0  0  0  0  0  0
   -1.8330   29.4620    7.9056 N   0  0  0  0  0  0  0  0  0  0  0  0
    0.5910   29.1909    7.3653 C   0  0  0  0  0  0  0  0  0  0  0  0
   -0.5314   28.9799    8.3762 C   0  0  0  0  0  0  0  0  0  0  0  0
   -1.7336   30.5136    6.8880 C   0  0  0  0  0  0  0  0  0  0  0  0
   -2.9901   31.3246    6.5921 C   0  0  0  0  0  0  0  0  0  0  0  0
 24 25  1  0  0  0
 25 23  1  0  0  0
 23 26  1  0  0  0
 26 27  1  0  0  0
 23 22  1  0  0  0
 22 20  1  0  0  0
 20 21  3  0  0  0
 21 19  1  0  0  0
 19 18  1  0  0  0
 18 16  1  0  0  0
 16 17  2  0  0  0
 16  1  1  0  0  0
  1  2  1  0  0  0
  1  4  1  0  0  0
  4  5  2  0  0  0
  5  6  1  0  0  0
  6  7  2  0  0  0
  7  8  1  0  0  0
  8  9  2  0  0  0
  1 10  1  0  0  0
 10 11  1  0  0  0
 11 12  1  0  0  0
 12 13  1  0  0  0
 13 14  1  0  0  0
 14 15  1  0  0  0
  9  4  1  0  0  0
 15 10  1  0  0  0
  2  3  1  0  0  0
M  END
> <minimizedAffinity>
-8.42395

$$$$
OCNT-0495340


 54 57  0  0  0  0  0  0  0  0999 V2000
   -5.1016   26.9551    3.1386 C   0  0  0  0  0  0  0  0  0  0  0  0
   -5.4452   24.7178    2.0706 C   0  0  0  0  0  0  0  0  0  0  0  0
   -4.5589   24.9320    1.2449 O   0  0  0  0  0  0  0  0  0  0  0  0
   -5.8086   25.6691    3.0086 N   0  0  0  0  0  0  0  0  0  0  0  0
   -6.6766   25.5466    3.5088 H   0  0  0  0  0  0  0  0  0  0  0  0
   -6.3110   23.4213    2.1065 C   0  0  0  0  0  0  0  0  0  0  0  0
   -7.7947   22.8076    5.4403 N   0  0  0  0  0  0  0  0  0  0  0  0
   -7.4829   22.2398    6.7384 C   0  0  0  0  0  0  0  0  0  0  0  0
   -6.8413   22.7361    4.4379 C   0  0  0  0  0  0  0  0  0  0  0  0
   -5.7735   22.1476    4.5795 O   0  0  0  0  0  0  0  0  0  0  0  0
   -7.1814   23.3924    3.2830 N   0  0  0  0  0  0  0  0  0  0  0  0
   -7.7174   24.2390    3.4526 H   0  0  0  0  0  0  0  0  0  0  0  0
   -9.1673   23.2592    5.2266 C   0  0  0  0  0  0  0  0  0  0  0  0
  -10.9142   23.3333    8.3986 C   0  0  0  0  0  0  0  0  0  0  0  0
  -10.1967   23.8476    7.4178 N   0  0  0  0  0  0  0  0  0  0  0  0
   -9.9983   22.8936    6.4195 C   0  0  0  0  0  0  0  0  0  0  0  0
  -10.5963   21.6707    6.6667 C   0  0  0  0  0  0  0  0  0  0  0  0
  -11.4059   21.6997    8.1726 S   0  0  0  0  0  0  0  0  0  0  0  0
  -11.2436   23.1189   10.8598 C   0  0  0  0  0  0  0  0  0  0  0  0
  -11.2821   24.0705    9.6617 C   0  0  0  0  0  0  0  0  0  0  0  0
  -10.3460   25.2569    9.8855 C   0  0  0  0  0  0  0  0  0  0  0  0
   -7.0604   23.0210    0.8020 C   0  0  0  0  0  0  0  0  0  0  0  0
   -6.2276   22.0355   -0.0280 C   0  0  0  0  0  0  0  0  0  0  0  0
   -7.5069   24.1854   -0.0899 C   0  0  0  0  0  0  0  0  0  0  0  0
   -6.1370   28.0583    3.4693 C   0  0  0  0  0  0  0  0  0  0  0  0
   -6.0630   28.6347    4.8607 C   0  0  0  0  0  0  0  0  0  0  0  0
   -5.2215   29.7206    5.1331 C   0  0  0  0  0  0  0  0  0  0  0  0
   -5.1424   30.2495    6.4220 C   0  0  0  0  0  0  0  0  0  0  0  0
   -5.9136   29.7082    7.4498 C   0  0  0  0  0  0  0  0  0  0  0  0
   -6.7640   28.6364    7.1870 C   0  0  0  0  0  0  0  0  0  0  0  0
   -6.8401   28.1009    5.8985 C   0  0  0  0  0  0  0  0  0  0  0  0
   -4.0111   26.7957    4.2260 C   0  0  0  0  0  0  0  0  0  0  0  0
   -2.6616   26.2454    3.7314 C   0  0  0  0  0  0  0  0  0  0  0  0
   -2.7556   24.8153    3.7007 O   0  0  0  0  0  0  0  0  0  0  0  0
   -2.4376   24.4592    4.5565 H   0  0  0  0  0  0  0  0  0  0  0  0
   -1.4676   26.6968    4.6276 C   0  0  0  0  0  0  0  0  0  0  0  0
   -1.9577   27.2754    5.8795 N   0  0  0  0  0  0  0  0  0  0  0  0
   -1.1882   28.0514    6.6854 C   0  0  0  0  0  0  0  0  0  0  0  0
   -0.0172   28.3307    6.4733 O   0  0  0  0  0  0  0  0  0  0  0  0
   -2.9446   27.2508    6.1046 H   0  0  0  0  0  0  0  0  0  0  0  0
   -1.9205   28.4625    7.7433 O   0  0  0  0  0  0  0  0  0  0  0  0
   -1.1800   29.2540    8.6749 C   0  0  0  0  0  0  0  0  0  0  0  0
   -1.8721   30.5714    8.7502 C   0  0  0  0  0  0  0  0  0  0  0  0
   -2.5109   31.1603    9.8231 C   0  0  0  0  0  0  0  0  0  0  0  0
   -3.0793   32.3960    9.5805 N   0  0  0  0  0  0  0  0  0  0  0  0
   -2.8546   32.7363    8.3311 C   0  0  0  0  0  0  0  0  0  0  0  0
   -1.9693   31.6123    7.3874 S   0  0  0  0  0  0  0  0  0  0  0  0
   -0.4852   25.5421    4.9217 C   0  0  0  0  0  0  0  0  0  0  0  0
    0.7526   25.5774    4.0509 C   0  0  0  0  0  0  0  0  0  0  0  0
    1.6739   24.5200    4.0818 C   0  0  0  0  0  0  0  0  0  0  0  0
    2.8089   24.5454    3.2696 C   0  0  0  0  0  0  0  0  0  0  0  0
    3.0351   25.6244    2.4190 C   0  0  0  0  0  0  0  0  0  0  0  0
    2.1261   26.6801    2.3804 C   0  0  0  0  0  0  0  0  0  0  0  0
    0.9895   26.6582    3.1920 C   0  0  0  0  0  0  0  0  0  0  0  0
 19 20  1  0  0  0
 20 21  1  0  0  0
 20 14  1  0  0  0
 14 15  2  0  0  0
 15 16  1  0  0  0
 16 13  1  0  0  0
 13  7  1  0  0  0
  7  8  1  0  0  0
  7  9  1  0  0  0
  9 10  2  0  0  0
  9 11  1  0  0  0
 11  6  1  0  0  0
  6  2  1  0  0  0
  2  3  2  0  0  0
  2  4  1  0  0  0
  4  1  1  0  0  0
  1 25  1  0  0  0
 25 26  1  0  0  0
 26 27  2  0  0  0
 27 28  1  0  0  0
 28 29  2  0  0  0
 29 30  1  0  0  0
 30 31  2  0  0  0
  1 32  1  0  0  0
 32 33  1  0  0  0
 33 34  1  0  0  0
 33 36  1  0  0  0
 36 48  1  0  0  0
 48 49  1  0  0  0
 49 50  2  0  0  0
 50 51  1  0  0  0
 51 52  2  0  0  0
 52 53  1  0  0  0
 53 54  2  0  0  0
 36 37  1  0  0  0
 37 38  1  0  0  0
 38 39  2  0  0  0
 38 41  1  0  0  0
 41 42  1  0  0  0
 42 43  1  0  0  0
 43 44  2  0  0  0
 44 45  1  0  0  0
 45 46  2  0  0  0
 46 47  1  0  0  0
  6 22  1  0  0  0
 22 23  1  0  0  0
 22 24  1  0  0  0
 16 17  2  0  0  0
 17 18  1  0  0  0
 18 14  1  0  0  0
 31 26  1  0  0  0
 54 49  1  0  0  0
 47 43  1  0  0  0
 11 12  1  0  0  0
  4  5  1  0  0  0
 34 35  1  0  0  0
 37 40  1  0  0  0
M  END
> <minimizedAffinity>
-9.94400

$$$$
OCNT-0495493


 26 29  0  0  0  0  0  0  0  0999 V2000
   -5.8445   25.2867    0.5339 O   0  0  0  0  0  0  0  0  0  0  0  0
   -5.7340   25.4215    1.7357 C   0  0  0  0  0  0  0  0  0  0  0  0
   -5.1718   26.4758    2.3867 O   0  0  0  0  0  0  0  0  0  0  0  0
   -5.1475   26.3052    3.8396 C   0  0  0  0  0  0  0  0  0  0  0  0
   -5.9121   25.0232    4.0012 C   0  0  0  0  0  0  0  0  0  0  0  0
   -6.3363   24.3522    5.1430 C   0  0  0  0  0  0  0  0  0  0  0  0
   -7.0450   23.1546    4.9955 C   0  0  0  0  0  0  0  0  0  0  0  0
   -7.3324   22.6434    3.7200 C   0  0  0  0  0  0  0  0  0  0  0  0
   -6.9205   23.3297    2.5783 C   0  0  0  0  0  0  0  0  0  0  0  0
   -6.2195   24.5111    2.7568 C   0  0  0  0  0  0  0  0  0  0  0  0
   -3.6484   26.2600    4.1858 C   0  0  0  0  0  0  0  0  0  0  0  0
   -3.2367   26.6106    5.4913 C   0  0  0  0  0  0  0  0  0  0  0  0
   -1.8907   26.5810    5.8653 C   0  0  0  0  0  0  0  0  0  0  0  0
   -0.9344   26.2025    4.9336 C   0  0  0  0  0  0  0  0  0  0  0  0
    0.3903   26.1574    5.2503 O   0  0  0  0  0  0  0  0  0  0  0  0
   -1.3035   25.8592    3.6406 C   0  0  0  0  0  0  0  0  0  0  0  0
   -2.6505   25.8898    3.2662 C   0  0  0  0  0  0  0  0  0  0  0  0
    0.4974   26.4462    6.1715 H   0  0  0  0  0  0  0  0  0  0  0  0
   -5.8858   27.4815    4.5045 C   0  0  0  0  0  0  0  0  0  0  0  0
   -5.8960   28.7561    3.9023 C   0  0  0  0  0  0  0  0  0  0  0  0
   -6.5410   29.8344    4.5116 C   0  0  0  0  0  0  0  0  0  0  0  0
   -7.1775   29.6562    5.7317 C   0  0  0  0  0  0  0  0  0  0  0  0
   -7.7939   30.7357    6.2909 O   0  0  0  0  0  0  0  0  0  0  0  0
   -7.1799   28.4155    6.3563 C   0  0  0  0  0  0  0  0  0  0  0  0
   -6.5344   27.3352    5.7466 C   0  0  0  0  0  0  0  0  0  0  0  0
   -8.1990   30.4608    7.1298 H   0  0  0  0  0  0  0  0  0  0  0  0
  1  2  2  0  0  0
  2  3  1  0  0  0
  3  4  1  0  0  0
  4 11  1  0  0  0
 11 12  1  0  0  0
 12 13  2  0  0  0
 13 14  1  0  0  0
 14 15  1  0  0  0
 14 16  2  0  0  0
 16 17  1  0  0  0
  4 19  1  0  0  0
 19 20  1  0  0  0
 20 21  2  0  0  0
 21 22  1  0  0  0
 22 23  1  0  0  0
 22 24  2  0  0  0
 24 25  1  0  0  0
  4  5  1  0  0  0
  5  6  2  0  0  0
  6  7  1  0  0  0
  7  8  2  0  0  0
  8  9  1  0  0  0
  9 10  2  0  0  0
 10  2  1  0  0  0
 17 11  2  0  0  0
 25 19  2  0  0  0
 10  5  1  0  0  0
 15 18  1  0  0  0
 23 26  1  0  0  0
M  END
> <minimizedAffinity>
-10.18478

$$$$
OCNT-0495620


 31 34  0  0  0  0  0  0  0  0999 V2000
   -2.5402   30.5716    8.1586 C   0  0  0  0  0  0  0  0  0  0  0  0
   -1.4173   29.7082    8.7833 C   0  0  0  0  0  0  0  0  0  0  0  0
   -1.4068   28.3908    7.9788 C   0  0  0  0  0  0  0  0  0  0  0  0
   -2.4130   28.6274    6.8496 C   0  0  0  0  0  0  0  0  0  0  0  0
   -2.9753   27.4102    6.1028 C   0  0  0  0  0  0  0  0  0  0  0  0
   -1.8386   26.5926    5.4629 C   0  0  0  0  0  0  0  0  0  0  0  0
   -2.1563   26.0785    4.0654 C   0  0  0  0  0  0  0  0  0  0  0  0
   -3.5899   25.5485    3.9430 C   0  0  0  0  0  0  0  0  0  0  0  0
   -3.7600   24.9500    2.5312 C   0  0  0  0  0  0  0  0  0  0  0  0
   -5.2158   24.6968    2.1732 C   0  0  0  0  0  0  0  0  0  0  0  0
   -5.3032   24.1254    0.8708 O   0  0  0  0  0  0  0  0  0  0  0  0
   -6.0350   25.9852    2.1956 C   0  0  0  0  0  0  0  0  0  0  0  0
   -5.4042   27.1043    3.0298 C   0  0  0  0  0  0  0  0  0  0  0  0
   -4.6806   26.6222    4.3167 C   0  0  0  0  0  0  0  0  0  0  0  0
   -5.7300   25.9458    5.2403 C   0  0  0  0  0  0  0  0  0  0  0  0
   -4.0232   27.8665    5.0430 C   0  0  0  0  0  0  0  0  0  0  0  0
   -5.0572   28.8843    5.6125 C   0  0  0  0  0  0  0  0  0  0  0  0
   -4.4286   30.0488    6.4037 C   0  0  0  0  0  0  0  0  0  0  0  0
   -3.7139   30.8856    5.4959 O   0  0  0  0  0  0  0  0  0  0  0  0
   -3.4960   29.5220    7.5119 C   0  0  0  0  0  0  0  0  0  0  0  0
   -4.3298   28.7324    8.5530 C   0  0  0  0  0  0  0  0  0  0  0  0
   -4.7869   23.3015    0.8762 H   0  0  0  0  0  0  0  0  0  0  0  0
   -4.3532   31.2332    4.8504 H   0  0  0  0  0  0  0  0  0  0  0  0
   -2.1833   32.0385   10.1897 C   0  0  0  0  0  0  0  0  0  0  0  0
   -3.0752   31.7856    8.9633 C   0  0  0  0  0  0  0  0  0  0  0  0
   -4.5694   31.8996    9.3321 C   0  0  0  0  0  0  0  0  0  0  0  0
   -5.5164   32.6123    8.3701 C   0  0  0  0  0  0  0  0  0  0  0  0
   -5.1138   34.0285    8.0615 C   0  0  0  0  0  0  0  0  0  0  0  0
   -4.8003   34.8947    8.8600 O   0  0  0  0  0  0  0  0  0  0  0  0
   -5.0838   34.2754    6.7377 O   0  0  0  0  0  0  0  0  0  0  0  0
   -4.7965   35.2106    6.6784 H   0  0  0  0  0  0  0  0  0  0  0  0
 24 25  1  0  0  0
 25 26  1  0  0  0
 26 27  1  0  0  0
 27 28  1  0  0  0
 28 29  2  0  0  0
 28 30  1  0  0  0
 25  1  1  0  0  0
  1  2  1  0  0  0
  2  3  1  0  0  0
  3  4  1  0  0  0
  4  5  1  0  0  0
  5  6  1  0  0  0
  6  7  1  0  0  0
  7  8  1  0  0  0
  8  9  1  0  0  0
  9 10  1  0  0  0
 10 11  1  0  0  0
 10 12  1  0  0  0
 12 13  1  0  0  0
 13 14  1  0  0  0
 14 15  1  0  0  0
 14 16  1  0  0  0
 16 17  1  0  0  0
 17 18  1  0  0  0
 18 19  1  0  0  0
 18 20  1  0  0  0
 20 21  1  0  0  0
 20  1  1  0  0  0
 20  4  1  0  0  0
 16  5  1  0  0  0
 14  8  1  0  0  0
 30 31  1  0  0  0
 11 22  1  0  0  0
 19 23  1  0  0  0
M  END
> <minimizedAffinity>
-10.32592

$$$$
OCNT-0496415


 60 63  0  0  0  0  0  0  0  0999 V2000
   -3.6872   24.8162    3.5611 C   0  0  0  0  0  0  0  0  0  0  0  0
   -4.2496   23.4213    3.3454 C   0  0  0  0  0  0  0  0  0  0  0  0
   -5.1896   22.6958    3.9888 C   0  0  0  0  0  0  0  0  0  0  0  0
   -5.4840   21.2892    3.5206 C   0  0  0  0  0  0  0  0  0  0  0  0
   -5.9731   23.1236    5.2065 C   0  0  0  0  0  0  0  0  0  0  0  0
   -7.5154   23.1884    5.0461 C   0  0  0  0  0  0  0  0  0  0  0  0
   -7.9055   24.2474    4.0058 C   0  0  0  0  0  0  0  0  0  0  0  0
   -8.1354   23.5019    6.4269 C   0  0  0  0  0  0  0  0  0  0  0  0
   -9.5409   22.8966    6.6588 C   0  0  0  0  0  0  0  0  0  0  0  0
   -9.8742   22.9897    8.1715 C   0  0  0  0  0  0  0  0  0  0  0  0
   -9.7657   24.3610    8.5829 O   0  0  0  0  0  0  0  0  0  0  0  0
   -9.7584   24.5465    9.9980 C   0  0  0  0  0  0  0  0  0  0  0  0
   -8.6743   23.8289   10.5650 O   0  0  0  0  0  0  0  0  0  0  0  0
   -9.6181   26.0789   10.1972 C   0  0  0  0  0  0  0  0  0  0  0  0
  -10.4766   26.7907   10.7119 O   0  0  0  0  0  0  0  0  0  0  0  0
   -8.3161   26.6664    9.6297 C   0  0  0  0  0  0  0  0  0  0  0  0
   -7.4558   25.8786    9.2385 O   0  0  0  0  0  0  0  0  0  0  0  0
   -8.1541   28.0488    9.5267 N   0  0  0  0  0  0  0  0  0  0  0  0
   -8.9254   29.0370   10.2820 C   0  0  0  0  0  0  0  0  0  0  0  0
   -8.1381   30.3208   10.5290 C   0  0  0  0  0  0  0  0  0  0  0  0
   -7.5955   30.9477    9.2469 C   0  0  0  0  0  0  0  0  0  0  0  0
   -7.4766   29.9543    8.0915 C   0  0  0  0  0  0  0  0  0  0  0  0
   -7.1579   28.5290    8.5557 C   0  0  0  0  0  0  0  0  0  0  0  0
   -5.7118   28.4363    9.0714 C   0  0  0  0  0  0  0  0  0  0  0  0
   -5.3744   28.4777   10.2486 O   0  0  0  0  0  0  0  0  0  0  0  0
   -4.8628   28.3593    8.0003 O   0  0  0  0  0  0  0  0  0  0  0  0
   -3.4557   28.4528    8.2916 C   0  0  0  0  0  0  0  0  0  0  0  0
   -2.6377   27.5562    7.3006 C   0  0  0  0  0  0  0  0  0  0  0  0
   -1.1301   27.8186    7.4392 C   0  0  0  0  0  0  0  0  0  0  0  0
   -3.1635   27.5968    5.8367 C   0  0  0  0  0  0  0  0  0  0  0  0
   -2.1212   27.5272    4.8602 O   0  0  0  0  0  0  0  0  0  0  0  0
   -4.2135   26.5093    5.5415 C   0  0  0  0  0  0  0  0  0  0  0  0
   -3.5589   25.2324    5.0421 C   0  0  0  0  0  0  0  0  0  0  0  0
   -2.8680   24.5686    5.8274 O   0  0  0  0  0  0  0  0  0  0  0  0
  -11.0954   24.0193   10.5784 C   0  0  0  0  0  0  0  0  0  0  0  0
  -11.1238   24.0307   12.1112 C   0  0  0  0  0  0  0  0  0  0  0  0
  -11.4114   22.5919   10.0822 C   0  0  0  0  0  0  0  0  0  0  0  0
  -11.2559   22.4443    8.5597 C   0  0  0  0  0  0  0  0  0  0  0  0
   -7.8741   24.2020   10.1428 H   0  0  0  0  0  0  0  0  0  0  0  0
   -1.5181   26.8032    5.1095 H   0  0  0  0  0  0  0  0  0  0  0  0
   -3.0569   29.9405    8.3136 C   0  0  0  0  0  0  0  0  0  0  0  0
   -1.6318   30.2482    8.6714 C   0  0  0  0  0  0  0  0  0  0  0  0
   -3.9881   30.8643    7.9836 C   0  0  0  0  0  0  0  0  0  0  0  0
   -4.0053   32.3819    7.9437 C   0  0  0  0  0  0  0  0  0  0  0  0
   -2.6916   33.1115    7.5949 C   0  0  0  0  0  0  0  0  0  0  0  0
   -2.6123   34.5536    8.1177 C   0  0  0  0  0  0  0  0  0  0  0  0
   -3.9876   35.2053    8.2519 C   0  0  0  0  0  0  0  0  0  0  0  0
   -4.6047   35.2570    6.9593 O   0  0  0  0  0  0  0  0  0  0  0  0
   -4.8829   34.4169    9.2313 C   0  0  0  0  0  0  0  0  0  0  0  0
   -4.5241   32.9187    9.2908 C   0  0  0  0  0  0  0  0  0  0  0  0
   -4.0483   35.8264    6.3986 H   0  0  0  0  0  0  0  0  0  0  0  0
   -4.7283   34.9981   10.5379 O   0  0  0  0  0  0  0  0  0  0  0  0
   -4.8423   36.4163   10.5341 C   0  0  0  0  0  0  0  0  0  0  0  0
  -10.4966   23.6361    5.8896 O   0  0  0  0  0  0  0  0  0  0  0  0
  -10.6869   24.9568    6.3818 C   0  0  0  0  0  0  0  0  0  0  0  0
  -11.3448   21.0700    8.1661 O   0  0  0  0  0  0  0  0  0  0  0  0
  -11.4106   20.8810    6.7590 C   0  0  0  0  0  0  0  0  0  0  0  0
   -4.3515   25.8466    2.6231 C   0  0  0  0  0  0  0  0  0  0  0  0
   -6.1002   24.9051    1.0720 C   0  0  0  0  0  0  0  0  0  0  0  0
   -4.8299   25.2577    1.3169 C   0  0  0  0  0  0  0  0  0  0  0  0
 59 60  2  0  0  0
 60 58  1  0  0  0
 58  1  1  0  0  0
  1  2  1  0  0  0
  2  3  2  0  0  0
  3  4  1  0  0  0
  3  5  1  0  0  0
  5  6  1  0  0  0
  6  7  1  0  0  0
  6  8  1  0  0  0
  8  9  1  0  0  0
  9 54  1  0  0  0
 54 55  1  0  0  0
  9 10  1  0  0  0
 10 11  1  0  0  0
 11 12  1  0  0  0
 12 13  1  0  0  0
 12 14  1  0  0  0
 14 15  2  0  0  0
 14 16  1  0  0  0
 16 17  2  0  0  0
 16 18  1  0  0  0
 18 19  1  0  0  0
 19 20  1  0  0  0
 20 21  1  0  0  0
 21 22  1  0  0  0
 22 23  1  0  0  0
 23 24  1  0  0  0
 24 25  2  0  0  0
 24 26  1  0  0  0
 26 27  1  0  0  0
 27 41  1  0  0  0
 41 42  1  0  0  0
 41 43  2  0  0  0
 43 44  1  0  0  0
 44 45  1  0  0  0
 45 46  1  0  0  0
 46 47  1  0  0  0
 47 48  1  0  0  0
 47 49  1  0  0  0
 49 52  1  0  0  0
 52 53  1  0  0  0
 49 50  1  0  0  0
 27 28  1  0  0  0
 28 29  1  0  0  0
 28 30  1  0  0  0
 30 31  1  0  0  0
 30 32  1  0  0  0
 32 33  1  0  0  0
 33 34  2  0  0  0
 12 35  1  0  0  0
 35 36  1  0  0  0
 35 37  1  0  0  0
 37 38  1  0  0  0
 38 56  1  0  0  0
 56 57  1  0  0  0
 33  1  1  0  0  0
 38 10  1  0  0  0
 23 18  1  0  0  0
 50 44  1  0  0  0
 13 39  1  0  0  0
 48 51  1  0  0  0
 31 40  1  0  0  0
M  END
> <minimizedAffinity>
17.40143

$$$$
OCNT-0496475


 17 19  0  0  0  0  0  0  0  0999 V2000
   -4.7747   25.5251    3.0306 N   0  0  0  0  0  0  0  0  0  0  0  0
   -5.8150   24.8518    3.8415 C   0  0  0  0  0  0  0  0  0  0  0  0
   -6.0805   25.5848    5.1742 C   0  0  0  0  0  0  0  0  0  0  0  0
   -6.1910   27.0506    4.9197 C   0  0  0  0  0  0  0  0  0  0  0  0
   -5.7732   27.6515    3.7496 C   0  0  0  0  0  0  0  0  0  0  0  0
   -5.9728   29.0660    3.8056 C   0  0  0  0  0  0  0  0  0  0  0  0
   -6.5246   29.4675    5.0042 C   0  0  0  0  0  0  0  0  0  0  0  0
   -6.8048   28.1477    6.0590 S   0  0  0  0  0  0  0  0  0  0  0  0
   -5.2178   26.8682    2.5912 C   0  0  0  0  0  0  0  0  0  0  0  0
   -4.4009   24.6809    1.8842 C   0  0  0  0  0  0  0  0  0  0  0  0
   -5.3926   21.7209    2.2720 Cl  0  0  0  0  0  0  0  0  0  0  0  0
   -6.0794   22.8766    1.1854 C   0  0  0  0  0  0  0  0  0  0  0  0
   -7.1696   22.4637    0.4117 C   0  0  0  0  0  0  0  0  0  0  0  0
   -7.7811   23.3502   -0.4738 C   0  0  0  0  0  0  0  0  0  0  0  0
   -7.3059   24.6533   -0.5873 C   0  0  0  0  0  0  0  0  0  0  0  0
   -6.2180   25.0697    0.1824 C   0  0  0  0  0  0  0  0  0  0  0  0
   -5.5862   24.1879    1.0799 C   0  0  0  0  0  0  0  0  0  0  0  0
 11 12  1  0  0  0
 12 13  2  0  0  0
 13 14  1  0  0  0
 14 15  2  0  0  0
 15 16  1  0  0  0
 16 17  2  0  0  0
 17 10  1  0  0  0
 10  1  1  0  0  0
  1  2  1  0  0  0
  2  3  1  0  0  0
  3  4  1  0  0  0
  4  5  2  0  0  0
  5  6  1  0  0  0
  6  7  2  0  0  0
  7  8  1  0  0  0
  5  9  1  0  0  0
 17 12  1  0  0  0
  9  1  1  0  0  0
  8  4  1  0  0  0
M  END
> <minimizedAffinity>
-8.14545

$$$$
OCNT-0496647


 21 24  0  0  0  0  0  0  0  0999 V2000
    1.1183   29.0538    8.6184 C   0  0  0  0  0  0  0  0  0  0  0  0
   -0.3418   29.0801    8.5851 N   0  0  0  0  0  0  0  0  0  0  0  0
   -0.8572   28.1928    7.5149 C   0  0  0  0  0  0  0  0  0  0  0  0
   -2.4006   28.0480    7.5556 C   0  0  0  0  0  0  0  0  0  0  0  0
   -3.0140   29.3874    7.7800 C   0  0  0  0  0  0  0  0  0  0  0  0
   -2.2988   30.4934    8.1913 C   0  0  0  0  0  0  0  0  0  0  0  0
   -0.8170   30.4761    8.4063 C   0  0  0  0  0  0  0  0  0  0  0  0
   -3.2214   31.5691    8.3141 C   0  0  0  0  0  0  0  0  0  0  0  0
   -3.0939   32.9258    8.6781 C   0  0  0  0  0  0  0  0  0  0  0  0
   -4.2253   33.7467    8.7023 C   0  0  0  0  0  0  0  0  0  0  0  0
   -5.4749   33.2359    8.3693 C   0  0  0  0  0  0  0  0  0  0  0  0
   -5.6301   31.8951    8.0048 C   0  0  0  0  0  0  0  0  0  0  0  0
   -4.4897   31.0728    7.9819 C   0  0  0  0  0  0  0  0  0  0  0  0
   -4.3354   29.7308    7.6629 N   0  0  0  0  0  0  0  0  0  0  0  0
   -5.4204   28.8113    7.3288 C   0  0  0  0  0  0  0  0  0  0  0  0
   -5.5944   28.6097    5.8411 C   0  0  0  0  0  0  0  0  0  0  0  0
   -5.9191   29.6729    4.9845 C   0  0  0  0  0  0  0  0  0  0  0  0
   -6.1048   29.4552    3.6178 C   0  0  0  0  0  0  0  0  0  0  0  0
   -5.9808   28.1719    3.0911 C   0  0  0  0  0  0  0  0  0  0  0  0
   -5.6737   27.1038    3.9304 C   0  0  0  0  0  0  0  0  0  0  0  0
   -5.4866   27.3196    5.2972 C   0  0  0  0  0  0  0  0  0  0  0  0
  1  2  1  0  0  0
  2  3  1  0  0  0
  3  4  1  0  0  0
  4  5  1  0  0  0
  5  6  2  0  0  0
  6  7  1  0  0  0
  6  8  1  0  0  0
  8  9  2  0  0  0
  9 10  1  0  0  0
 10 11  2  0  0  0
 11 12  1  0  0  0
 12 13  2  0  0  0
 13 14  1  0  0  0
 14 15  1  0  0  0
 15 16  1  0  0  0
 16 17  2  0  0  0
 17 18  1  0  0  0
 18 19  2  0  0  0
 19 20  1  0  0  0
 20 21  2  0  0  0
  7  2  1  0  0  0
 13  8  1  0  0  0
 21 16  1  0  0  0
 14  5  1  0  0  0
M  END
> <minimizedAffinity>
-9.21492

$$$$
OCNT-0497719


 23 25  0  0  0  0  0  0  0  0999 V2000
   -5.9948   27.8159    4.4470 C   0  0  0  0  0  0  0  0  0  0  0  0
   -6.1814   26.6895    5.2553 C   0  0  0  0  0  0  0  0  0  0  0  0
   -6.1361   25.4049    4.7049 C   0  0  0  0  0  0  0  0  0  0  0  0
   -5.9125   25.2090    3.3331 C   0  0  0  0  0  0  0  0  0  0  0  0
   -5.7350   26.3454    2.5296 C   0  0  0  0  0  0  0  0  0  0  0  0
   -5.7760   27.6329    3.0759 C   0  0  0  0  0  0  0  0  0  0  0  0
   -5.8727   23.8542    2.7570 C   0  0  0  0  0  0  0  0  0  0  0  0
   -5.4820   22.7486    3.5301 C   0  0  0  0  0  0  0  0  0  0  0  0
   -5.4579   21.4599    2.9881 C   0  0  0  0  0  0  0  0  0  0  0  0
   -5.8212   21.2540    1.6621 C   0  0  0  0  0  0  0  0  0  0  0  0
   -6.2094   22.3360    0.8771 C   0  0  0  0  0  0  0  0  0  0  0  0
   -6.2343   23.6242    1.4209 C   0  0  0  0  0  0  0  0  0  0  0  0
   -6.0428   29.2018    5.0436 C   0  0  0  0  0  0  0  0  0  0  0  0
   -5.6813   29.2573    7.4113 O   0  0  0  0  0  0  0  0  0  0  0  0
   -5.1848   29.3483    6.2914 C   0  0  0  0  0  0  0  0  0  0  0  0
   -3.8634   29.6010    6.0061 N   0  0  0  0  0  0  0  0  0  0  0  0
   -3.5608   29.6263    5.0405 H   0  0  0  0  0  0  0  0  0  0  0  0
   -2.8068   29.8030    6.8923 C   0  0  0  0  0  0  0  0  0  0  0  0
   -2.3248   31.0508    7.2647 C   0  0  0  0  0  0  0  0  0  0  0  0
   -1.2588   31.1187    8.1615 C   0  0  0  0  0  0  0  0  0  0  0  0
   -0.7068   29.9448    8.6567 C   0  0  0  0  0  0  0  0  0  0  0  0
   -1.2494   28.7452    8.2324 C   0  0  0  0  0  0  0  0  0  0  0  0
   -2.2824   28.6504    7.3652 N   0  0  0  0  0  0  0  0  0  0  0  0
 14 15  2  0  0  0
 15 13  1  0  0  0
 13  1  1  0  0  0
  1  2  1  0  0  0
  2  3  2  0  0  0
  3  4  1  0  0  0
  4  7  1  0  0  0
  7  8  2  0  0  0
  8  9  1  0  0  0
  9 10  2  0  0  0
 10 11  1  0  0  0
 11 12  2  0  0  0
  4  5  2  0  0  0
  5  6  1  0  0  0
 15 16  1  0  0  0
 16 18  1  0  0  0
 18 19  2  0  0  0
 19 20  1  0  0  0
 20 21  2  0  0  0
 21 22  1  0  0  0
 22 23  2  0  0  0
  6  1  2  0  0  0
 23 18  1  0  0  0
 12  7  1  0  0  0
 16 17  1  0  0  0
M  END
> <minimizedAffinity>
-9.73033

$$$$
OCNT-0497954


 21 23  0  0  0  0  0  0  0  0999 V2000
   -1.9202   27.9787    7.1728 C   0  0  0  0  0  0  0  0  0  0  0  0
   -2.8889   28.9068    7.3522 C   0  0  0  0  0  0  0  0  0  0  0  0
   -2.5951   30.0333    8.2830 C   0  0  0  0  0  0  0  0  0  0  0  0
   -1.4027   30.7713    8.2078 C   0  0  0  0  0  0  0  0  0  0  0  0
   -1.1615   31.8225    9.0945 C   0  0  0  0  0  0  0  0  0  0  0  0
   -2.1102   32.1532   10.0591 C   0  0  0  0  0  0  0  0  0  0  0  0
   -3.3085   31.4419   10.1320 C   0  0  0  0  0  0  0  0  0  0  0  0
   -3.5637   30.3908    9.2417 C   0  0  0  0  0  0  0  0  0  0  0  0
   -5.1336   29.5315    9.3696 S   0  0  0  0  0  0  0  0  0  0  0  0
   -5.3600   28.9952    7.6740 C   0  0  0  0  0  0  0  0  0  0  0  0
   -6.6697   28.8456    7.1976 C   0  0  0  0  0  0  0  0  0  0  0  0
   -6.8996   28.4846    5.8691 C   0  0  0  0  0  0  0  0  0  0  0  0
   -5.8204   28.2898    5.0119 C   0  0  0  0  0  0  0  0  0  0  0  0
   -6.1005   27.8694    3.3671 Cl  0  0  0  0  0  0  0  0  0  0  0  0
   -4.5129   28.4326    5.4741 C   0  0  0  0  0  0  0  0  0  0  0  0
   -4.2674   28.7462    6.8192 C   0  0  0  0  0  0  0  0  0  0  0  0
   -1.9896   26.6528    6.4543 C   0  0  0  0  0  0  0  0  0  0  0  0
   -0.6665   26.3336    5.7333 C   0  0  0  0  0  0  0  0  0  0  0  0
    0.3232   26.2667    3.5033 C   0  0  0  0  0  0  0  0  0  0  0  0
   -0.7634   25.8052    4.3638 N   0  0  0  0  0  0  0  0  0  0  0  0
   -2.0627   26.0578    3.7483 C   0  0  0  0  0  0  0  0  0  0  0  0
 19 20  1  0  0  0
 20 21  1  0  0  0
 20 18  1  0  0  0
 18 17  1  0  0  0
 17  1  1  0  0  0
  1  2  2  0  0  0
  2  3  1  0  0  0
  3  4  2  0  0  0
  4  5  1  0  0  0
  5  6  2  0  0  0
  6  7  1  0  0  0
  7  8  2  0  0  0
  8  9  1  0  0  0
  9 10  1  0  0  0
 10 11  1  0  0  0
 11 12  2  0  0  0
 12 13  1  0  0  0
 13 14  1  0  0  0
 13 15  2  0  0  0
 15 16  1  0  0  0
 16  2  1  0  0  0
  8  3  1  0  0  0
 16 10  2  0  0  0
M  END
> <minimizedAffinity>
-8.34635

$$$$
OCNT-0497979


 22 23  0  0  0  0  0  0  0  0999 V2000
   -4.9799   28.6465    7.0577 C   0  0  0  0  0  0  0  0  0  0  0  0
   -5.2197   29.9063    6.3719 N   0  0  0  0  0  0  0  0  0  0  0  0
   -6.0235   29.8064    5.1605 C   0  0  0  0  0  0  0  0  0  0  0  0
   -6.0084   28.4501    4.5058 C   0  0  0  0  0  0  0  0  0  0  0  0
   -5.7720   28.1776    3.2136 C   0  0  0  0  0  0  0  0  0  0  0  0
   -5.7836   26.8443    2.7253 C   0  0  0  0  0  0  0  0  0  0  0  0
   -5.7938   25.7173    2.3100 C   0  0  0  0  0  0  0  0  0  0  0  0
   -5.8057   24.3282    1.8000 C   0  0  0  0  0  0  0  0  0  0  0  0
   -4.3696   23.7871    1.7615 C   0  0  0  0  0  0  0  0  0  0  0  0
   -6.6599   23.4525    2.7274 C   0  0  0  0  0  0  0  0  0  0  0  0
   -6.3999   24.3097    0.3848 C   0  0  0  0  0  0  0  0  0  0  0  0
   -4.0583   30.7978    6.2898 C   0  0  0  0  0  0  0  0  0  0  0  0
   -3.2227   31.1509    7.5180 C   0  0  0  0  0  0  0  0  0  0  0  0
   -3.6585   32.0598    8.4966 C   0  0  0  0  0  0  0  0  0  0  0  0
   -2.8780   32.3610    9.6100 C   0  0  0  0  0  0  0  0  0  0  0  0
   -1.6386   31.7569    9.7749 C   0  0  0  0  0  0  0  0  0  0  0  0
   -1.1606   30.8413    8.8319 C   0  0  0  0  0  0  0  0  0  0  0  0
    0.0956   30.2418    9.0243 C   0  0  0  0  0  0  0  0  0  0  0  0
    0.6022   29.3238    8.1081 C   0  0  0  0  0  0  0  0  0  0  0  0
   -0.1436   28.9935    6.9868 C   0  0  0  0  0  0  0  0  0  0  0  0
   -1.3947   29.5829    6.7827 C   0  0  0  0  0  0  0  0  0  0  0  0
   -1.9440   30.5224    7.6906 C   0  0  0  0  0  0  0  0  0  0  0  0
  1  2  1  0  0  0
  2  3  1  0  0  0
  3  4  1  0  0  0
  4  5  2  0  0  0
  5  6  1  0  0  0
  6  7  3  0  0  0
  7  8  1  0  0  0
  8  9  1  0  0  0
  8 10  1  0  0  0
  8 11  1  0  0  0
  2 12  1  0  0  0
 12 13  1  0  0  0
 13 14  2  0  0  0
 14 15  1  0  0  0
 15 16  2  0  0  0
 16 17  1  0  0  0
 17 18  2  0  0  0
 18 19  1  0  0  0
 19 20  2  0  0  0
 20 21  1  0  0  0
 21 22  2  0  0  0
 22 13  1  0  0  0
 22 17  1  0  0  0
M  END
> <minimizedAffinity>
-9.15304

$$$$
OCNT-0497986


 24 25  0  0  0  0  0  0  0  0999 V2000
   -3.0525   29.7083    6.7520 C   0  0  0  0  0  0  0  0  0  0  0  0
   -4.3075   29.3465    6.2514 C   0  0  0  0  0  0  0  0  0  0  0  0
   -4.5295   28.0265    5.8459 C   0  0  0  0  0  0  0  0  0  0  0  0
   -3.5376   27.0478    5.9075 C   0  0  0  0  0  0  0  0  0  0  0  0
   -2.2997   27.4258    6.4460 C   0  0  0  0  0  0  0  0  0  0  0  0
   -2.0251   28.7529    6.8513 C   0  0  0  0  0  0  0  0  0  0  0  0
   -3.7640   25.6992    5.6112 N   0  0  0  0  0  0  0  0  0  0  0  0
   -4.8739   25.3814    4.7432 C   0  0  0  0  0  0  0  0  0  0  0  0
   -6.0735   25.9080    5.3313 N   0  0  0  0  0  0  0  0  0  0  0  0
   -6.1319   27.5767    5.2739 S   0  0  0  0  0  0  0  0  0  0  0  0
   -6.2195   27.9857    3.8906 O   0  0  0  0  0  0  0  0  0  0  0  0
   -7.0930   27.9942    6.2695 O   0  0  0  0  0  0  0  0  0  0  0  0
   -2.9132   25.2119    5.3354 H   0  0  0  0  0  0  0  0  0  0  0  0
   -6.2731   25.5591    6.2654 H   0  0  0  0  0  0  0  0  0  0  0  0
   -4.1689   32.1976    6.8080 N   0  0  0  0  0  0  0  0  0  0  0  0
   -2.7904   31.3774    7.3021 S   0  0  0  0  0  0  0  0  0  0  0  0
   -1.7012   31.9286    6.5361 O   0  0  0  0  0  0  0  0  0  0  0  0
   -2.8514   31.3953    8.7421 O   0  0  0  0  0  0  0  0  0  0  0  0
   -4.6767   32.5388    7.6268 H   0  0  0  0  0  0  0  0  0  0  0  0
   -3.9124   32.9421    6.1566 H   0  0  0  0  0  0  0  0  0  0  0  0
   -0.6513   29.0753    7.3968 C   0  0  0  0  0  0  0  0  0  0  0  0
    0.0740   29.8994    6.6000 F   0  0  0  0  0  0  0  0  0  0  0  0
    0.1179   27.9554    7.5399 F   0  0  0  0  0  0  0  0  0  0  0  0
   -0.6962   29.6387    8.6306 F   0  0  0  0  0  0  0  0  0  0  0  0
 15 16  1  0  0  0
 16 17  2  0  0  0
 16 18  2  0  0  0
 16  1  1  0  0  0
  1  2  1  0  0  0
  2  3  2  0  0  0
  3  4  1  0  0  0
  4  5  2  0  0  0
  5  6  1  0  0  0
  6 21  1  0  0  0
 21 22  1  0  0  0
 21 23  1  0  0  0
 21 24  1  0  0  0
  4  7  1  0  0  0
  7  8  1  0  0  0
  8  9  1  0  0  0
  9 10  1  0  0  0
 10 11  2  0  0  0
 10 12  2  0  0  0
  6  1  2  0  0  0
 10  3  1  0  0  0
 15 19  1  0  0  0
 15 20  1  0  0  0
  7 13  1  0  0  0
  9 14  1  0  0  0
M  END
> <minimizedAffinity>
-7.68713

$$$$
OCNT-0497994


 26 27  0  0  0  0  0  0  0  0999 V2000
   -2.7626   28.7960    6.5457 C   0  0  0  0  0  0  0  0  0  0  0  0
   -2.5939   27.4689    6.3480 C   0  0  0  0  0  0  0  0  0  0  0  0
   -1.2943   26.7308    6.5493 C   0  0  0  0  0  0  0  0  0  0  0  0
   -3.6592   26.7040    5.8962 N   0  0  0  0  0  0  0  0  0  0  0  0
   -4.8939   27.2169    5.5288 C   0  0  0  0  0  0  0  0  0  0  0  0
   -5.8495   26.2388    4.8949 C   0  0  0  0  0  0  0  0  0  0  0  0
   -5.1487   28.5316    5.7140 C   0  0  0  0  0  0  0  0  0  0  0  0
   -4.1079   29.4807    6.3045 C   0  0  0  0  0  0  0  0  0  0  0  0
   -3.4769   25.7246    5.6893 H   0  0  0  0  0  0  0  0  0  0  0  0
   -4.6307   30.1281    7.5989 C   0  0  0  0  0  0  0  0  0  0  0  0
   -5.2392   29.2987    8.5690 C   0  0  0  0  0  0  0  0  0  0  0  0
   -5.7337   29.8202    9.7627 C   0  0  0  0  0  0  0  0  0  0  0  0
   -5.6313   31.1832   10.0162 C   0  0  0  0  0  0  0  0  0  0  0  0
   -5.0332   32.0277    9.0771 C   0  0  0  0  0  0  0  0  0  0  0  0
   -4.9473   33.7097    9.4818 Cl  0  0  0  0  0  0  0  0  0  0  0  0
   -4.5306   31.5111    7.8680 C   0  0  0  0  0  0  0  0  0  0  0  0
   -3.7877   32.5841    6.7239 Cl  0  0  0  0  0  0  0  0  0  0  0  0
   -1.6589   29.6436    7.0441 C   0  0  0  0  0  0  0  0  0  0  0  0
   -0.9552   30.3456    6.3356 O   0  0  0  0  0  0  0  0  0  0  0  0
   -1.5732   29.5120    8.3894 O   0  0  0  0  0  0  0  0  0  0  0  0
   -1.3758   31.6434    9.5183 C   0  0  0  0  0  0  0  0  0  0  0  0
   -0.6537   30.3957    9.0462 C   0  0  0  0  0  0  0  0  0  0  0  0
   -6.4234   29.1673    5.3269 C   0  0  0  0  0  0  0  0  0  0  0  0
   -7.4929   28.9109    5.8554 O   0  0  0  0  0  0  0  0  0  0  0  0
   -6.2246   29.9964    4.2716 O   0  0  0  0  0  0  0  0  0  0  0  0
   -6.1084   29.3166    3.0217 C   0  0  0  0  0  0  0  0  0  0  0  0
 21 22  1  0  0  0
 22 20  1  0  0  0
 20 18  1  0  0  0
 18 19  2  0  0  0
 18  1  1  0  0  0
  1  2  2  0  0  0
  2  3  1  0  0  0
  2  4  1  0  0  0
  4  5  1  0  0  0
  5  6  1  0  0  0
  5  7  2  0  0  0
  7 23  1  0  0  0
 23 24  2  0  0  0
 23 25  1  0  0  0
 25 26  1  0  0  0
  7  8  1  0  0  0
  8 10  1  0  0  0
 10 11  2  0  0  0
 11 12  1  0  0  0
 12 13  2  0  0  0
 13 14  1  0  0  0
 14 15  1  0  0  0
 14 16  2  0  0  0
 16 17  1  0  0  0
  8  1  1  0  0  0
 16 10  1  0  0  0
  4  9  1  0  0  0
M  END
> <minimizedAffinity>
-7.37696

$$$$
OCNT-0498030


 27 29  0  0  0  0  0  0  0  0999 V2000
   -5.9701   27.8220    4.6099 C   0  0  0  0  0  0  0  0  0  0  0  0
   -5.7643   27.8304    3.2234 C   0  0  0  0  0  0  0  0  0  0  0  0
   -5.7161   26.6332    2.5036 C   0  0  0  0  0  0  0  0  0  0  0  0
   -5.8871   25.4115    3.1560 C   0  0  0  0  0  0  0  0  0  0  0  0
   -6.1089   25.3821    4.5343 C   0  0  0  0  0  0  0  0  0  0  0  0
   -6.1345   26.5814    5.2579 C   0  0  0  0  0  0  0  0  0  0  0  0
   -6.0858   29.0920    5.4421 C   0  0  0  0  0  0  0  0  0  0  0  0
   -7.4994   29.4388    5.9200 C   0  0  0  0  0  0  0  0  0  0  0  0
   -3.7579   29.2780    6.1843 N   0  0  0  0  0  0  0  0  0  0  0  0
   -5.0595   29.0801    6.5867 C   0  0  0  0  0  0  0  0  0  0  0  0
   -5.4370   28.9469    7.7508 O   0  0  0  0  0  0  0  0  0  0  0  0
   -3.5509   29.4396    5.2080 H   0  0  0  0  0  0  0  0  0  0  0  0
   -0.7862   31.6608    9.3871 C   0  0  0  0  0  0  0  0  0  0  0  0
   -1.1165   30.5006    8.4989 C   0  0  0  0  0  0  0  0  0  0  0  0
   -0.2707   29.3950    8.4104 C   0  0  0  0  0  0  0  0  0  0  0  0
   -0.6495   28.3441    7.5925 C   0  0  0  0  0  0  0  0  0  0  0  0
   -1.7915   28.3239    6.8693 N   0  0  0  0  0  0  0  0  0  0  0  0
   -2.6113   29.3942    6.9718 C   0  0  0  0  0  0  0  0  0  0  0  0
   -2.3179   30.4854    7.7784 C   0  0  0  0  0  0  0  0  0  0  0  0
   -6.2779   24.0633    5.2022 C   0  0  0  0  0  0  0  0  0  0  0  0
   -5.3541   23.6020    5.8685 O   0  0  0  0  0  0  0  0  0  0  0  0
   -7.5427   23.2950    5.0905 C   0  0  0  0  0  0  0  0  0  0  0  0
   -8.6908   23.6605    5.8033 C   0  0  0  0  0  0  0  0  0  0  0  0
   -9.8540   22.8967    5.6848 C   0  0  0  0  0  0  0  0  0  0  0  0
   -9.8788   21.7823    4.8435 C   0  0  0  0  0  0  0  0  0  0  0  0
   -8.7444   21.4333    4.1108 C   0  0  0  0  0  0  0  0  0  0  0  0
   -7.5775   22.1919    4.2295 C   0  0  0  0  0  0  0  0  0  0  0  0
 13 14  1  0  0  0
 14 15  2  0  0  0
 15 16  1  0  0  0
 16 17  2  0  0  0
 17 18  1  0  0  0
 18  9  1  0  0  0
  9 10  1  0  0  0
 10 11  2  0  0  0
 10  7  1  0  0  0
  7  8  1  0  0  0
  7  1  1  0  0  0
  1  2  2  0  0  0
  2  3  1  0  0  0
  3  4  2  0  0  0
  4  5  1  0  0  0
  5 20  1  0  0  0
 20 21  2  0  0  0
 20 22  1  0  0  0
 22 23  2  0  0  0
 23 24  1  0  0  0
 24 25  2  0  0  0
 25 26  1  0  0  0
 26 27  2  0  0  0
  5  6  2  0  0  0
 18 19  2  0  0  0
 19 14  1  0  0  0
  6  1  1  0  0  0
 27 22  1  0  0  0
  9 12  1  0  0  0
M  END
> <minimizedAffinity>
-10.14241

$$$$
OCNT-0498067


 32 35  0  0  0  0  0  0  0  0999 V2000
   -2.0911   25.9211    2.9424 O   0  0  0  0  0  0  0  0  0  0  0  0
   -2.9511   26.1380    3.7657 C   0  0  0  0  0  0  0  0  0  0  0  0
   -2.9748   26.7783    5.1630 C   0  0  0  0  0  0  0  0  0  0  0  0
   -4.5016   26.4357    5.1559 C   0  0  0  0  0  0  0  0  0  0  0  0
   -4.2843   25.8977    3.8087 N   0  0  0  0  0  0  0  0  0  0  0  0
   -5.5057   27.6587    5.3328 C   0  0  0  0  0  0  0  0  0  0  0  0
   -5.7154   28.6288    4.3296 C   0  0  0  0  0  0  0  0  0  0  0  0
   -6.5982   29.6981    4.5054 C   0  0  0  0  0  0  0  0  0  0  0  0
   -7.2939   29.8252    5.6971 C   0  0  0  0  0  0  0  0  0  0  0  0
   -8.1439   30.8814    5.8297 O   0  0  0  0  0  0  0  0  0  0  0  0
   -7.1205   28.8993    6.7154 C   0  0  0  0  0  0  0  0  0  0  0  0
   -6.2350   27.8320    6.5290 C   0  0  0  0  0  0  0  0  0  0  0  0
   -8.5561   30.8423    6.7082 H   0  0  0  0  0  0  0  0  0  0  0  0
   -5.1438   25.2160    2.9485 C   0  0  0  0  0  0  0  0  0  0  0  0
   -5.3775   25.6818    1.6478 C   0  0  0  0  0  0  0  0  0  0  0  0
   -6.2416   24.9946    0.7903 C   0  0  0  0  0  0  0  0  0  0  0  0
   -6.8734   23.8411    1.2337 C   0  0  0  0  0  0  0  0  0  0  0  0
   -7.7017   23.1825    0.4130 F   0  0  0  0  0  0  0  0  0  0  0  0
   -6.6576   23.3621    2.5187 C   0  0  0  0  0  0  0  0  0  0  0  0
   -5.7929   24.0489    3.3757 C   0  0  0  0  0  0  0  0  0  0  0  0
   -2.1634   26.1111    6.2708 C   0  0  0  0  0  0  0  0  0  0  0  0
   -2.0226   27.0241    7.4971 C   0  0  0  0  0  0  0  0  0  0  0  0
   -1.2076   28.2928    7.2058 C   0  0  0  0  0  0  0  0  0  0  0  0
    0.1812   28.0035    7.3791 O   0  0  0  0  0  0  0  0  0  0  0  0
    0.6373   28.8613    7.4411 H   0  0  0  0  0  0  0  0  0  0  0  0
   -1.6120   29.4408    8.1072 C   0  0  0  0  0  0  0  0  0  0  0  0
   -2.9436   29.6040    8.5266 C   0  0  0  0  0  0  0  0  0  0  0  0
   -3.3007   30.6751    9.3467 C   0  0  0  0  0  0  0  0  0  0  0  0
   -2.3307   31.5873    9.7436 C   0  0  0  0  0  0  0  0  0  0  0  0
   -2.6750   32.6157   10.5300 F   0  0  0  0  0  0  0  0  0  0  0  0
   -1.0100   31.4508    9.3343 C   0  0  0  0  0  0  0  0  0  0  0  0
   -0.6499   30.3801    8.5145 C   0  0  0  0  0  0  0  0  0  0  0  0
  1  2  2  0  0  0
  2  3  1  0  0  0
  3 21  1  0  0  0
 21 22  1  0  0  0
 22 23  1  0  0  0
 23 24  1  0  0  0
 23 26  1  0  0  0
 26 27  1  0  0  0
 27 28  2  0  0  0
 28 29  1  0  0  0
 29 30  1  0  0  0
 29 31  2  0  0  0
 31 32  1  0  0  0
  3  4  1  0  0  0
  4  6  1  0  0  0
  6  7  1  0  0  0
  7  8  2  0  0  0
  8  9  1  0  0  0
  9 10  1  0  0  0
  9 11  2  0  0  0
 11 12  1  0  0  0
  4  5  1  0  0  0
  5 14  1  0  0  0
 14 15  1  0  0  0
 15 16  2  0  0  0
 16 17  1  0  0  0
 17 18  1  0  0  0
 17 19  2  0  0  0
 19 20  1  0  0  0
  5  2  1  0  0  0
 20 14  2  0  0  0
 32 26  2  0  0  0
 12  6  2  0  0  0
 24 25  1  0  0  0
 10 13  1  0  0  0
M  END
> <minimizedAffinity>
-10.19106

$$$$
OCNT-0713834


 32 34  0  0  0  0  0  0  0  0999 V2000
   -2.6723   29.7217    7.5139 C   0  0  0  0  0  0  0  0  0  0  0  0
   -3.9958   29.7536    7.0250 C   0  0  0  0  0  0  0  0  0  0  0  0
   -4.5523   28.8031    6.1186 C   0  0  0  0  0  0  0  0  0  0  0  0
   -3.6994   27.7534    5.6789 C   0  0  0  0  0  0  0  0  0  0  0  0
   -2.3805   27.7174    6.1574 C   0  0  0  0  0  0  0  0  0  0  0  0
   -1.8820   28.6715    7.0499 C   0  0  0  0  0  0  0  0  0  0  0  0
   -0.5808   28.5573    7.4591 O   0  0  0  0  0  0  0  0  0  0  0  0
   -0.2045   27.7407    7.0910 H   0  0  0  0  0  0  0  0  0  0  0  0
   -0.7699   30.4376    9.1273 C   0  0  0  0  0  0  0  0  0  0  0  0
   -2.1432   30.7890    8.4981 C   0  0  0  0  0  0  0  0  0  0  0  0
   -1.9492   32.1410    7.7753 C   0  0  0  0  0  0  0  0  0  0  0  0
   -3.1249   30.9641    9.6786 C   0  0  0  0  0  0  0  0  0  0  0  0
   -6.0367   28.9797    5.6846 C   0  0  0  0  0  0  0  0  0  0  0  0
   -6.8384   30.0193    6.5278 C   0  0  0  0  0  0  0  0  0  0  0  0
   -6.8236   27.6607    5.8682 C   0  0  0  0  0  0  0  0  0  0  0  0
   -6.1158   29.5194    4.2386 C   0  0  0  0  0  0  0  0  0  0  0  0
   -4.1482   26.7615    4.7619 N   0  0  0  0  0  0  0  0  0  0  0  0
   -3.4369   26.1181    3.7642 C   0  0  0  0  0  0  0  0  0  0  0  0
   -2.2433   26.2723    3.5117 O   0  0  0  0  0  0  0  0  0  0  0  0
   -5.1147   26.4644    4.8508 H   0  0  0  0  0  0  0  0  0  0  0  0
   -4.2325   25.1474    2.9436 C   0  0  0  0  0  0  0  0  0  0  0  0
   -3.8926   23.8462    2.9880 C   0  0  0  0  0  0  0  0  0  0  0  0
   -4.5122   22.8355    2.2985 N   0  0  0  0  0  0  0  0  0  0  0  0
   -5.5405   23.1127    1.3918 C   0  0  0  0  0  0  0  0  0  0  0  0
   -6.0151   24.4276    1.2563 C   0  0  0  0  0  0  0  0  0  0  0  0
   -7.0690   24.7244    0.3846 C   0  0  0  0  0  0  0  0  0  0  0  0
   -7.6588   23.7006   -0.3557 C   0  0  0  0  0  0  0  0  0  0  0  0
   -7.2004   22.3894   -0.2204 C   0  0  0  0  0  0  0  0  0  0  0  0
   -6.1498   22.0946    0.6548 C   0  0  0  0  0  0  0  0  0  0  0  0
   -5.3761   25.5049    2.0571 C   0  0  0  0  0  0  0  0  0  0  0  0
   -5.7852   26.6602    1.9791 O   0  0  0  0  0  0  0  0  0  0  0  0
   -4.0896   21.9134    2.3042 H   0  0  0  0  0  0  0  0  0  0  0  0
  9 10  1  0  0  0
 10 11  1  0  0  0
 10 12  1  0  0  0
 10  1  1  0  0  0
  1  2  2  0  0  0
  2  3  1  0  0  0
  3 13  1  0  0  0
 13 14  1  0  0  0
 13 15  1  0  0  0
 13 16  1  0  0  0
  3  4  2  0  0  0
  4 17  1  0  0  0
 17 18  1  0  0  0
 18 19  2  0  0  0
 18 21  1  0  0  0
 21 22  2  0  0  0
 22 23  1  0  0  0
 23 24  1  0  0  0
 24 25  1  0  0  0
 25 26  2  0  0  0
 26 27  1  0  0  0
 27 28  2  0  0  0
 28 29  1  0  0  0
 25 30  1  0  0  0
 30 31  2  0  0  0
  4  5  1  0  0  0
  5  6  2  0  0  0
  6  7  1  0  0  0
  6  1  1  0  0  0
 30 21  1  0  0  0
 29 24  2  0  0  0
 17 20  1  0  0  0
 23 32  1  0  0  0
  7  8  1  0  0  0
M  END
> <minimizedAffinity>
-10.95452

$$$$
OCNT-0713835


 42 45  0  0  0  0  0  0  0  0999 V2000
   -3.2968   26.1437    5.3242 C   0  0  0  0  0  0  0  0  0  0  0  0
   -1.9527   25.9147    5.6425 C   0  0  0  0  0  0  0  0  0  0  0  0
   -1.2732   26.8440    6.4216 C   0  0  0  0  0  0  0  0  0  0  0  0
   -1.9654   27.9696    6.8559 C   0  0  0  0  0  0  0  0  0  0  0  0
   -3.2695   28.2026    6.5381 N   0  0  0  0  0  0  0  0  0  0  0  0
   -3.9375   27.2984    5.7802 C   0  0  0  0  0  0  0  0  0  0  0  0
   -5.2556   27.5763    5.4355 N   0  0  0  0  0  0  0  0  0  0  0  0
   -5.9801   28.3587    6.4537 C   0  0  0  0  0  0  0  0  0  0  0  0
   -7.1544   28.9632    5.6874 C   0  0  0  0  0  0  0  0  0  0  0  0
   -7.7842   30.1541    6.3905 C   0  0  0  0  0  0  0  0  0  0  0  0
   -6.4945   29.3189    4.3581 C   0  0  0  0  0  0  0  0  0  0  0  0
   -5.5683   28.1103    4.0788 C   0  0  0  0  0  0  0  0  0  0  0  0
   -6.3309   27.0215    3.3050 C   0  0  0  0  0  0  0  0  0  0  0  0
   -4.3587   28.5585    3.2470 C   0  0  0  0  0  0  0  0  0  0  0  0
   -1.2966   28.9260    7.6777 N   0  0  0  0  0  0  0  0  0  0  0  0
    0.0065   28.8436    8.1224 C   0  0  0  0  0  0  0  0  0  0  0  0
    0.2503   29.9749    8.8629 C   0  0  0  0  0  0  0  0  0  0  0  0
   -0.9576   30.6797    8.8203 C   0  0  0  0  0  0  0  0  0  0  0  0
   -1.9045   30.0657    8.1132 N   0  0  0  0  0  0  0  0  0  0  0  0
   -1.1806   31.8735    9.4077 O   0  0  0  0  0  0  0  0  0  0  0  0
   -2.3851   31.9500   10.1720 C   0  0  0  0  0  0  0  0  0  0  0  0
   -3.5313   32.5182    9.3135 C   0  0  0  0  0  0  0  0  0  0  0  0
   -2.9707   32.8974    7.9293 C   0  0  0  0  0  0  0  0  0  0  0  0
   -4.1351   33.7708    9.9735 C   0  0  0  0  0  0  0  0  0  0  0  0
   -4.6166   31.4547    9.1442 C   0  0  0  0  0  0  0  0  0  0  0  0
   -4.3520   30.3599    9.8945 F   0  0  0  0  0  0  0  0  0  0  0  0
   -4.6903   31.0432    7.8556 F   0  0  0  0  0  0  0  0  0  0  0  0
   -5.8443   31.8990    9.4883 F   0  0  0  0  0  0  0  0  0  0  0  0
   -5.0326   24.4875    5.3243 N   0  0  0  0  0  0  0  0  0  0  0  0
   -4.0309   25.1132    4.5745 C   0  0  0  0  0  0  0  0  0  0  0  0
   -3.8327   24.9214    3.3885 O   0  0  0  0  0  0  0  0  0  0  0  0
   -5.0905   24.6086    6.3309 H   0  0  0  0  0  0  0  0  0  0  0  0
   -6.0244   23.2755    4.7780 S   0  0  0  0  0  0  0  0  0  0  0  0
   -5.1256   22.1831    4.4576 O   0  0  0  0  0  0  0  0  0  0  0  0
   -6.9708   23.7692    3.8076 O   0  0  0  0  0  0  0  0  0  0  0  0
   -5.1345   21.5131    7.6211 C   0  0  0  0  0  0  0  0  0  0  0  0
   -6.5000   21.9487    7.2280 C   0  0  0  0  0  0  0  0  0  0  0  0
   -7.5352   21.6087    8.0160 N   0  0  0  0  0  0  0  0  0  0  0  0
   -8.6052   22.1626    7.4232 N   0  0  0  0  0  0  0  0  0  0  0  0
   -9.9067   22.0238    8.0310 C   0  0  0  0  0  0  0  0  0  0  0  0
   -8.3124   22.7932    6.2554 C   0  0  0  0  0  0  0  0  0  0  0  0
   -6.9436   22.6773    6.0987 C   0  0  0  0  0  0  0  0  0  0  0  0
 36 37  1  0  0  0
 37 38  2  0  0  0
 38 39  1  0  0  0
 39 40  1  0  0  0
 39 41  1  0  0  0
 41 42  2  0  0  0
 42 33  1  0  0  0
 33 34  2  0  0  0
 33 35  2  0  0  0
 33 29  1  0  0  0
 29 30  1  0  0  0
 30 31  2  0  0  0
 30  1  1  0  0  0
  1  2  2  0  0  0
  2  3  1  0  0  0
  3  4  2  0  0  0
  4 15  1  0  0  0
 15 16  1  0  0  0
 16 17  2  0  0  0
 17 18  1  0  0  0
 18 20  1  0  0  0
 20 21  1  0  0  0
 21 22  1  0  0  0
 22 23  1  0  0  0
 22 24  1  0  0  0
 22 25  1  0  0  0
 25 26  1  0  0  0
 25 27  1  0  0  0
 25 28  1  0  0  0
 18 19  2  0  0  0
  4  5  1  0  0  0
  5  6  2  0  0  0
  6  7  1  0  0  0
  7  8  1  0  0  0
  8  9  1  0  0  0
  9 10  1  0  0  0
  9 11  1  0  0  0
 11 12  1  0  0  0
 12 13  1  0  0  0
 12 14  1  0  0  0
 42 37  1  0  0  0
  6  1  1  0  0  0
 12  7  1  0  0  0
 19 15  1  0  0  0
 29 32  1  0  0  0
M  END
> <minimizedAffinity>
-8.76179

$$$$
OCNT-1411118


 26 28  0  0  0  0  0  0  0  0999 V2000
   -6.6700   23.5502    4.1643 C   0  0  0  0  0  0  0  0  0  0  0  0
   -6.1223   24.7678    4.3808 C   0  0  0  0  0  0  0  0  0  0  0  0
   -4.6612   21.1356    3.5035 C   0  0  0  0  0  0  0  0  0  0  0  0
   -5.6028   21.8351    2.5731 C   0  0  0  0  0  0  0  0  0  0  0  0
   -6.4627   22.8804    2.9101 C   0  0  0  0  0  0  0  0  0  0  0  0
   -7.4092   23.3686    1.5497 S   0  0  0  0  0  0  0  0  0  0  0  0
   -6.6701   22.2262    0.5258 C   0  0  0  0  0  0  0  0  0  0  0  0
   -5.7285   21.4756    1.1880 C   0  0  0  0  0  0  0  0  0  0  0  0
   -7.4811   22.9931    5.2181 C   0  0  0  0  0  0  0  0  0  0  0  0
   -7.0950   22.3527    6.3943 C   0  0  0  0  0  0  0  0  0  0  0  0
   -5.6839   22.1225    6.8267 C   0  0  0  0  0  0  0  0  0  0  0  0
   -8.2292   21.9329    7.1675 C   0  0  0  0  0  0  0  0  0  0  0  0
   -9.4257   22.2460    6.5702 C   0  0  0  0  0  0  0  0  0  0  0  0
   -9.2052   23.0351    5.0769 S   0  0  0  0  0  0  0  0  0  0  0  0
   -5.2927   25.6053    3.4409 C   0  0  0  0  0  0  0  0  0  0  0  0
   -4.7359   26.9095    4.0479 C   0  0  0  0  0  0  0  0  0  0  0  0
   -3.3218   26.8511    4.4710 N   0  0  0  0  0  0  0  0  0  0  0  0
   -2.4534   26.2483    3.4444 C   0  0  0  0  0  0  0  0  0  0  0  0
   -1.1793   25.5959    3.9971 C   0  0  0  0  0  0  0  0  0  0  0  0
   -0.6861   26.3219    5.2398 C   0  0  0  0  0  0  0  0  0  0  0  0
   -1.7611   26.2920    6.3380 C   0  0  0  0  0  0  0  0  0  0  0  0
   -3.1865   26.1690    5.7674 C   0  0  0  0  0  0  0  0  0  0  0  0
   -1.6400   27.4812    7.2675 C   0  0  0  0  0  0  0  0  0  0  0  0
   -0.9337   28.4671    7.1332 O   0  0  0  0  0  0  0  0  0  0  0  0
   -2.3772   27.3383    8.3911 O   0  0  0  0  0  0  0  0  0  0  0  0
   -2.1851   28.1597    8.8930 H   0  0  0  0  0  0  0  0  0  0  0  0
  3  4  1  0  0  0
  4  5  2  0  0  0
  5  1  1  0  0  0
  1  2  2  0  0  0
  2 15  1  0  0  0
 15 16  1  0  0  0
 16 17  1  0  0  0
 17 18  1  0  0  0
 18 19  1  0  0  0
 19 20  1  0  0  0
 20 21  1  0  0  0
 21 23  1  0  0  0
 23 24  2  0  0  0
 23 25  1  0  0  0
 21 22  1  0  0  0
  1  9  1  0  0  0
  9 10  2  0  0  0
 10 11  1  0  0  0
 10 12  1  0  0  0
 12 13  2  0  0  0
 13 14  1  0  0  0
  5  6  1  0  0  0
  6  7  1  0  0  0
  7  8  2  0  0  0
  8  4  1  0  0  0
 22 17  1  0  0  0
 14  9  1  0  0  0
 25 26  1  0  0  0
M  END
> <minimizedAffinity>
-8.59082

$$$$
OCNT-1893991


 28 31  0  0  0  0  0  0  0  0999 V2000
   -5.0380   27.5508    3.4937 C   0  0  0  0  0  0  0  0  0  0  0  0
   -5.7090   28.9292    3.4502 C   0  0  0  0  0  0  0  0  0  0  0  0
   -6.5374   29.1861    4.7062 C   0  0  0  0  0  0  0  0  0  0  0  0
   -5.6986   29.1898    5.9116 N   0  0  0  0  0  0  0  0  0  0  0  0
   -4.6808   28.1263    5.9261 C   0  0  0  0  0  0  0  0  0  0  0  0
   -4.9379   27.0056    4.9230 C   0  0  0  0  0  0  0  0  0  0  0  0
   -3.8504   25.4541    2.0017 O   0  0  0  0  0  0  0  0  0  0  0  0
   -5.0697   25.5795    1.9867 C   0  0  0  0  0  0  0  0  0  0  0  0
   -5.7388   26.5946    2.6400 N   0  0  0  0  0  0  0  0  0  0  0  0
   -6.7439   26.6609    2.5658 H   0  0  0  0  0  0  0  0  0  0  0  0
   -5.9080   24.6236    1.2121 C   0  0  0  0  0  0  0  0  0  0  0  0
   -6.5464   25.0894    0.0557 C   0  0  0  0  0  0  0  0  0  0  0  0
   -7.3415   24.2290   -0.7033 C   0  0  0  0  0  0  0  0  0  0  0  0
   -7.4941   22.8985   -0.3157 C   0  0  0  0  0  0  0  0  0  0  0  0
   -6.8462   22.4235    0.8247 C   0  0  0  0  0  0  0  0  0  0  0  0
   -6.0499   23.2814    1.5878 C   0  0  0  0  0  0  0  0  0  0  0  0
   -6.5322   29.2082    7.1277 C   0  0  0  0  0  0  0  0  0  0  0  0
   -5.7080   29.0709    8.4207 C   0  0  0  0  0  0  0  0  0  0  0  0
   -4.9488   30.3240    8.7370 C   0  0  0  0  0  0  0  0  0  0  0  0
   -5.4909   31.5636    9.0162 C   0  0  0  0  0  0  0  0  0  0  0  0
   -4.4653   32.4388    9.2508 N   0  0  0  0  0  0  0  0  0  0  0  0
   -3.2548   31.7971    9.1330 C   0  0  0  0  0  0  0  0  0  0  0  0
   -1.9535   32.2903    9.2868 C   0  0  0  0  0  0  0  0  0  0  0  0
   -0.8954   31.3956    9.1015 C   0  0  0  0  0  0  0  0  0  0  0  0
   -1.1322   30.0630    8.7738 C   0  0  0  0  0  0  0  0  0  0  0  0
   -2.4399   29.5871    8.6232 C   0  0  0  0  0  0  0  0  0  0  0  0
   -3.5255   30.4682    8.8067 C   0  0  0  0  0  0  0  0  0  0  0  0
   -4.5743   33.4173    9.4768 H   0  0  0  0  0  0  0  0  0  0  0  0
  7  8  2  0  0  0
  8  9  1  0  0  0
  9  1  1  0  0  0
  1  2  1  0  0  0
  2  3  1  0  0  0
  3  4  1  0  0  0
  4 17  1  0  0  0
 17 18  1  0  0  0
 18 19  1  0  0  0
 19 20  2  0  0  0
 20 21  1  0  0  0
 21 22  1  0  0  0
 22 23  2  0  0  0
 23 24  1  0  0  0
 24 25  2  0  0  0
 25 26  1  0  0  0
 26 27  2  0  0  0
  4  5  1  0  0  0
  5  6  1  0  0  0
  8 11  1  0  0  0
 11 12  2  0  0  0
 12 13  1  0  0  0
 13 14  2  0  0  0
 14 15  1  0  0  0
 15 16  2  0  0  0
  6  1  1  0  0  0
 16 11  1  0  0  0
 27 19  1  0  0  0
 27 22  1  0  0  0
  9 10  1  0  0  0
 21 28  1  0  0  0
M  END
> <minimizedAffinity>
-10.21103

$$$$
OCNT-1893994


 21 22  0  0  0  0  0  0  0  0999 V2000
   -3.8118   29.1148    7.6038 C   0  0  0  0  0  0  0  0  0  0  0  0
   -4.6133   28.4778    8.2843 O   0  0  0  0  0  0  0  0  0  0  0  0
   -3.5290   28.8726    6.2658 N   0  0  0  0  0  0  0  0  0  0  0  0
   -2.5910   29.1283    5.9952 H   0  0  0  0  0  0  0  0  0  0  0  0
   -4.1815   27.9315    5.4306 C   0  0  0  0  0  0  0  0  0  0  0  0
   -5.4343   28.1717    4.8251 C   0  0  0  0  0  0  0  0  0  0  0  0
   -6.1878   29.4725    4.9111 C   0  0  0  0  0  0  0  0  0  0  0  0
   -6.0257   27.1592    4.0454 C   0  0  0  0  0  0  0  0  0  0  0  0
   -5.3709   25.9560    3.8096 C   0  0  0  0  0  0  0  0  0  0  0  0
   -4.1073   25.7451    4.3456 C   0  0  0  0  0  0  0  0  0  0  0  0
   -3.4964   26.7217    5.1500 C   0  0  0  0  0  0  0  0  0  0  0  0
   -2.1387   26.4077    5.7233 C   0  0  0  0  0  0  0  0  0  0  0  0
   -1.6840   29.7786    8.8684 N   0  0  0  0  0  0  0  0  0  0  0  0
   -0.7015   30.8620    9.0432 C   0  0  0  0  0  0  0  0  0  0  0  0
   -1.3478   32.2311    9.2540 C   0  0  0  0  0  0  0  0  0  0  0  0
   -2.1953   32.6440    8.0527 C   0  0  0  0  0  0  0  0  0  0  0  0
   -2.7492   31.4380    7.2950 C   0  0  0  0  0  0  0  0  0  0  0  0
   -2.9528   30.2397    8.2338 C   0  0  0  0  0  0  0  0  0  0  0  0
   -1.0868   28.5551    8.3193 C   0  0  0  0  0  0  0  0  0  0  0  0
    0.3881   29.1161    6.3502 C   0  0  0  0  0  0  0  0  0  0  0  0
    0.3563   28.7363    7.8241 C   0  0  0  0  0  0  0  0  0  0  0  0
 20 21  1  0  0  0
 21 19  1  0  0  0
 19 13  1  0  0  0
 13 14  1  0  0  0
 14 15  1  0  0  0
 15 16  1  0  0  0
 16 17  1  0  0  0
 17 18  1  0  0  0
 18  1  1  0  0  0
  1  2  2  0  0  0
  1  3  1  0  0  0
  3  5  1  0  0  0
  5  6  2  0  0  0
  6  7  1  0  0  0
  6  8  1  0  0  0
  8  9  2  0  0  0
  9 10  1  0  0  0
 10 11  2  0  0  0
 11 12  1  0  0  0
 18 13  1  0  0  0
 11  5  1  0  0  0
  3  4  1  0  0  0
M  END
> <minimizedAffinity>
-7.87191

$$$$
OCNT-1893998


 23 23  0  0  0  0  0  0  0  0999 V2000
   -5.5818   31.5363    8.0331 C   0  0  0  0  0  0  0  0  0  0  0  0
   -6.3393   31.3987    8.9868 O   0  0  0  0  0  0  0  0  0  0  0  0
   -5.6397   30.7598    6.8956 N   0  0  0  0  0  0  0  0  0  0  0  0
   -5.1058   31.0468    6.0869 H   0  0  0  0  0  0  0  0  0  0  0  0
   -4.4712   32.5698    7.9791 C   0  0  0  0  0  0  0  0  0  0  0  0
   -3.9859   32.9690    9.3718 C   0  0  0  0  0  0  0  0  0  0  0  0
   -2.6892   32.2694    9.7910 C   0  0  0  0  0  0  0  0  0  0  0  0
   -2.1574   31.2962    8.7356 C   0  0  0  0  0  0  0  0  0  0  0  0
   -0.7329   30.8077    9.0238 C   0  0  0  0  0  0  0  0  0  0  0  0
   -0.4888   29.3587    8.5936 C   0  0  0  0  0  0  0  0  0  0  0  0
    0.7166   29.3173    6.3446 C   0  0  0  0  0  0  0  0  0  0  0  0
    0.8373   29.1656    7.8531 C   0  0  0  0  0  0  0  0  0  0  0  0
   -6.6948   29.7939    6.6883 C   0  0  0  0  0  0  0  0  0  0  0  0
   -6.4031   28.9358    5.4832 C   0  0  0  0  0  0  0  0  0  0  0  0
   -6.1733   29.5147    4.2286 C   0  0  0  0  0  0  0  0  0  0  0  0
   -5.9267   28.7097    3.1162 C   0  0  0  0  0  0  0  0  0  0  0  0
   -5.9175   27.3215    3.2555 C   0  0  0  0  0  0  0  0  0  0  0  0
   -5.6776   26.5321    2.1616 O   0  0  0  0  0  0  0  0  0  0  0  0
   -6.1533   26.7166    4.4972 C   0  0  0  0  0  0  0  0  0  0  0  0
   -6.3947   27.5339    5.6054 C   0  0  0  0  0  0  0  0  0  0  0  0
   -5.5090   27.0970    1.3927 H   0  0  0  0  0  0  0  0  0  0  0  0
   -6.1280   25.3470    4.5214 O   0  0  0  0  0  0  0  0  0  0  0  0
   -4.9903   24.7261    5.1034 C   0  0  0  0  0  0  0  0  0  0  0  0
 11 12  1  0  0  0
 12 10  1  0  0  0
 10  9  1  0  0  0
  9  8  1  0  0  0
  8  7  1  0  0  0
  7  6  1  0  0  0
  6  5  1  0  0  0
  5  1  1  0  0  0
  1  2  2  0  0  0
  1  3  1  0  0  0
  3 13  1  0  0  0
 13 14  1  0  0  0
 14 15  1  0  0  0
 15 16  2  0  0  0
 16 17  1  0  0  0
 17 18  1  0  0  0
 17 19  2  0  0  0
 19 22  1  0  0  0
 22 23  1  0  0  0
 19 20  1  0  0  0
 20 14  2  0  0  0
  3  4  1  0  0  0
 18 21  1  0  0  0
M  END
> <minimizedAffinity>
-7.65908

$$$$
OCNT-1911794


 25 28  0  0  0  0  0  0  0  0999 V2000
   -4.9837   25.4712    2.7182 C   0  0  0  0  0  0  0  0  0  0  0  0
   -5.8532   26.1418    1.8146 O   0  0  0  0  0  0  0  0  0  0  0  0
   -5.6189   25.8148    0.9295 H   0  0  0  0  0  0  0  0  0  0  0  0
   -4.6888   26.3102    3.9615 C   0  0  0  0  0  0  0  0  0  0  0  0
   -3.4080   26.4965    4.5630 C   0  0  0  0  0  0  0  0  0  0  0  0
   -2.1949   25.8968    4.1344 C   0  0  0  0  0  0  0  0  0  0  0  0
   -0.9706   26.1361    4.7666 C   0  0  0  0  0  0  0  0  0  0  0  0
   -0.9368   26.9875    5.8588 C   0  0  0  0  0  0  0  0  0  0  0  0
   -2.1200   27.5822    6.3037 C   0  0  0  0  0  0  0  0  0  0  0  0
   -3.3417   27.3568    5.6866 C   0  0  0  0  0  0  0  0  0  0  0  0
   -4.4066   27.9871    6.2035 N   0  0  0  0  0  0  0  0  0  0  0  0
   -5.6020   27.7880    5.6249 C   0  0  0  0  0  0  0  0  0  0  0  0
   -5.7903   26.9799    4.5238 C   0  0  0  0  0  0  0  0  0  0  0  0
    0.0985   25.4836    4.2193 O   0  0  0  0  0  0  0  0  0  0  0  0
    1.0164   26.2687    3.4692 C   0  0  0  0  0  0  0  0  0  0  0  0
   -6.7903   22.1367    1.0991 C   0  0  0  0  0  0  0  0  0  0  0  0
   -5.3517   22.7048    0.9840 C   0  0  0  0  0  0  0  0  0  0  0  0
   -4.7211   22.9410    2.3133 N   0  0  0  0  0  0  0  0  0  0  0  0
   -4.8724   21.6843    3.0968 C   0  0  0  0  0  0  0  0  0  0  0  0
   -6.3519   21.4082    3.4294 C   0  0  0  0  0  0  0  0  0  0  0  0
   -7.2461   22.3210    2.5663 C   0  0  0  0  0  0  0  0  0  0  0  0
   -6.9763   23.7801    2.9924 C   0  0  0  0  0  0  0  0  0  0  0  0
   -5.4511   24.0192    3.0708 C   0  0  0  0  0  0  0  0  0  0  0  0
   -7.4356   23.8654   -0.6135 C   0  0  0  0  0  0  0  0  0  0  0  0
   -7.7311   22.7732    0.1034 C   0  0  0  0  0  0  0  0  0  0  0  0
 24 25  2  0  0  0
 25 16  1  0  0  0
 16 17  1  0  0  0
 17 18  1  0  0  0
 18 19  1  0  0  0
 19 20  1  0  0  0
 20 21  1  0  0  0
 21 22  1  0  0  0
 22 23  1  0  0  0
 23  1  1  0  0  0
  1  2  1  0  0  0
  1  4  1  0  0  0
  4  5  1  0  0  0
  5  6  2  0  0  0
  6  7  1  0  0  0
  7 14  1  0  0  0
 14 15  1  0  0  0
  7  8  2  0  0  0
  8  9  1  0  0  0
  9 10  2  0  0  0
 10 11  1  0  0  0
 11 12  2  0  0  0
 12 13  1  0  0  0
 21 16  1  0  0  0
 13  4  2  0  0  0
 23 18  1  0  0  0
 10  5  1  0  0  0
  2  3  1  0  0  0
M  END
> <minimizedAffinity>
-9.08410

$$$$
OCNT-1911799


 18 20  0  0  0  0  0  0  0  0999 V2000
    0.8594   29.3844    8.5024 Cl  0  0  0  0  0  0  0  0  0  0  0  0
   -0.7470   30.0248    8.6923 C   0  0  0  0  0  0  0  0  0  0  0  0
   -1.8591   29.1560    8.5311 C   0  0  0  0  0  0  0  0  0  0  0  0
   -3.1299   29.7917    8.6929 C   0  0  0  0  0  0  0  0  0  0  0  0
   -4.3387   29.2150    8.5538 N   0  0  0  0  0  0  0  0  0  0  0  0
   -5.4699   30.3823    8.8731 S   0  0  0  0  0  0  0  0  0  0  0  0
   -4.4946   31.7003    9.1333 N   0  0  0  0  0  0  0  0  0  0  0  0
   -3.2312   31.2642    9.0170 C   0  0  0  0  0  0  0  0  0  0  0  0
   -2.0754   32.0642    9.1666 C   0  0  0  0  0  0  0  0  0  0  0  0
   -0.8474   31.4076    8.9914 C   0  0  0  0  0  0  0  0  0  0  0  0
   -1.6962   27.7719    8.3062 N   0  0  0  0  0  0  0  0  0  0  0  0
   -2.2065   27.2006    8.9688 H   0  0  0  0  0  0  0  0  0  0  0  0
   -1.7083   27.2688    7.0421 C   0  0  0  0  0  0  0  0  0  0  0  0
   -2.7085   27.1739    6.2139 N   0  0  0  0  0  0  0  0  0  0  0  0
   -2.1237   26.5322    5.0077 C   0  0  0  0  0  0  0  0  0  0  0  0
   -0.6061   26.5764    5.1933 C   0  0  0  0  0  0  0  0  0  0  0  0
   -0.4921   26.8142    6.6188 N   0  0  0  0  0  0  0  0  0  0  0  0
    0.2741   27.4240    6.8800 H   0  0  0  0  0  0  0  0  0  0  0  0
  1  2  1  0  0  0
  2  3  2  0  0  0
  3 11  1  0  0  0
 11 13  1  0  0  0
 13 14  2  0  0  0
 14 15  1  0  0  0
 15 16  1  0  0  0
 16 17  1  0  0  0
  3  4  1  0  0  0
  4  5  2  0  0  0
  5  6  1  0  0  0
  6  7  1  0  0  0
  7  8  2  0  0  0
  8  9  1  0  0  0
  9 10  2  0  0  0
 10  2  1  0  0  0
 17 13  1  0  0  0
  8  4  1  0  0  0
 11 12  1  0  0  0
 17 18  1  0  0  0
M  END
> <minimizedAffinity>
-7.56525

$$$$
OCNT-1911800


 25 28  0  0  0  0  0  0  0  0999 V2000
   -3.3004   31.4133    7.5779 C   0  0  0  0  0  0  0  0  0  0  0  0
   -3.2014   32.9064    7.9681 C   0  0  0  0  0  0  0  0  0  0  0  0
   -4.4702   33.4379    8.6336 C   0  0  0  0  0  0  0  0  0  0  0  0
   -5.6494   32.9196    7.9602 N   0  0  0  0  0  0  0  0  0  0  0  0
   -5.7788   31.4646    8.0893 C   0  0  0  0  0  0  0  0  0  0  0  0
   -4.4495   30.7161    8.3416 C   0  0  0  0  0  0  0  0  0  0  0  0
   -6.4923   33.3688    8.3183 H   0  0  0  0  0  0  0  0  0  0  0  0
    1.7393   28.9185    8.1932 F   0  0  0  0  0  0  0  0  0  0  0  0
    0.5452   29.5062    8.0421 C   0  0  0  0  0  0  0  0  0  0  0  0
   -0.0760   29.4851    6.8003 C   0  0  0  0  0  0  0  0  0  0  0  0
   -1.3207   30.0969    6.6417 C   0  0  0  0  0  0  0  0  0  0  0  0
   -1.9451   30.7371    7.7261 C   0  0  0  0  0  0  0  0  0  0  0  0
   -1.2996   30.7387    8.9742 C   0  0  0  0  0  0  0  0  0  0  0  0
   -0.0553   30.1256    9.1304 C   0  0  0  0  0  0  0  0  0  0  0  0
   -4.6013   29.2316    7.9640 C   0  0  0  0  0  0  0  0  0  0  0  0
   -5.6659   29.1073    7.0172 O   0  0  0  0  0  0  0  0  0  0  0  0
   -5.3957   28.4346    5.8562 C   0  0  0  0  0  0  0  0  0  0  0  0
   -4.1728   27.7531    5.8541 C   0  0  0  0  0  0  0  0  0  0  0  0
   -3.8208   27.0491    4.7227 C   0  0  0  0  0  0  0  0  0  0  0  0
   -4.6344   27.0066    3.6167 C   0  0  0  0  0  0  0  0  0  0  0  0
   -5.8427   27.6665    3.5833 C   0  0  0  0  0  0  0  0  0  0  0  0
   -6.2259   28.3900    4.7202 C   0  0  0  0  0  0  0  0  0  0  0  0
   -4.1062   26.2608    2.6106 O   0  0  0  0  0  0  0  0  0  0  0  0
   -2.8638   25.8383    3.2107 C   0  0  0  0  0  0  0  0  0  0  0  0
   -2.6763   26.3346    4.5524 O   0  0  0  0  0  0  0  0  0  0  0  0
  8  9  1  0  0  0
  9 10  1  0  0  0
 10 11  2  0  0  0
 11 12  1  0  0  0
 12  1  1  0  0  0
  1  2  1  0  0  0
  2  3  1  0  0  0
  3  4  1  0  0  0
  4  5  1  0  0  0
  5  6  1  0  0  0
  6 15  1  0  0  0
 15 16  1  0  0  0
 16 17  1  0  0  0
 17 18  2  0  0  0
 18 19  1  0  0  0
 19 20  2  0  0  0
 20 21  1  0  0  0
 21 22  2  0  0  0
 20 23  1  0  0  0
 23 24  1  0  0  0
 24 25  1  0  0  0
 12 13  2  0  0  0
 13 14  1  0  0  0
 14  9  2  0  0  0
  6  1  1  0  0  0
 22 17  1  0  0  0
 25 19  1  0  0  0
  4  7  1  0  0  0
M  END
> <minimizedAffinity>
-9.08041

$$$$
OCNT-1965934


 22 23  0  0  0  0  0  0  0  0999 V2000
   -2.4511   27.8011    6.8149 C   0  0  0  0  0  0  0  0  0  0  0  0
   -2.2865   26.7616    7.4569 O   0  0  0  0  0  0  0  0  0  0  0  0
   -3.2807   27.9468    5.7043 N   0  0  0  0  0  0  0  0  0  0  0  0
   -3.7185   28.8589    5.6483 H   0  0  0  0  0  0  0  0  0  0  0  0
   -3.8889   26.9108    4.9531 C   0  0  0  0  0  0  0  0  0  0  0  0
   -5.3077   26.8659    4.9393 C   0  0  0  0  0  0  0  0  0  0  0  0
   -6.1622   27.8427    5.7093 C   0  0  0  0  0  0  0  0  0  0  0  0
   -5.9660   25.8489    4.2280 C   0  0  0  0  0  0  0  0  0  0  0  0
   -5.2462   24.8919    3.5221 C   0  0  0  0  0  0  0  0  0  0  0  0
   -3.8575   24.9575    3.4959 C   0  0  0  0  0  0  0  0  0  0  0  0
   -3.1616   25.9756    4.1748 C   0  0  0  0  0  0  0  0  0  0  0  0
   -1.6667   26.0021    3.9751 C   0  0  0  0  0  0  0  0  0  0  0  0
   -2.6264   30.3017    7.2081 N   0  0  0  0  0  0  0  0  0  0  0  0
   -1.8403   31.5004    7.5546 C   0  0  0  0  0  0  0  0  0  0  0  0
   -1.0508   31.3746    8.8653 C   0  0  0  0  0  0  0  0  0  0  0  0
   -0.1319   30.1544    8.8477 C   0  0  0  0  0  0  0  0  0  0  0  0
   -0.9092   28.9001    8.4714 C   0  0  0  0  0  0  0  0  0  0  0  0
   -1.7191   29.1129    7.1768 C   0  0  0  0  0  0  0  0  0  0  0  0
   -3.7841   30.1540    8.1148 C   0  0  0  0  0  0  0  0  0  0  0  0
   -4.8728   31.2165    7.8662 C   0  0  0  0  0  0  0  0  0  0  0  0
   -4.5212   33.3879    9.1947 C   0  0  0  0  0  0  0  0  0  0  0  0
   -5.2419   32.0489    9.0983 C   0  0  0  0  0  0  0  0  0  0  0  0
 21 22  1  0  0  0
 22 20  1  0  0  0
 20 19  1  0  0  0
 19 13  1  0  0  0
 13 14  1  0  0  0
 14 15  1  0  0  0
 15 16  1  0  0  0
 16 17  1  0  0  0
 17 18  1  0  0  0
 18  1  1  0  0  0
  1  2  2  0  0  0
  1  3  1  0  0  0
  3  5  1  0  0  0
  5  6  2  0  0  0
  6  7  1  0  0  0
  6  8  1  0  0  0
  8  9  2  0  0  0
  9 10  1  0  0  0
 10 11  2  0  0  0
 11 12  1  0  0  0
 18 13  1  0  0  0
 11  5  1  0  0  0
  3  4  1  0  0  0
M  END
> <minimizedAffinity>
-8.02235

$$$$
OCNT-2077048


 24 24  0  0  0  0  0  0  0  0999 V2000
   -4.8484   26.5356    4.2247 C   0  0  0  0  0  0  0  0  0  0  0  0
   -3.6916   26.2070    4.7271 N   0  0  0  0  0  0  0  0  0  0  0  0
   -5.4982   25.5864    3.2602 C   0  0  0  0  0  0  0  0  0  0  0  0
   -5.4840   25.8974    1.8934 C   0  0  0  0  0  0  0  0  0  0  0  0
   -6.0758   25.0407    0.9600 C   0  0  0  0  0  0  0  0  0  0  0  0
   -6.6961   23.8549    1.3758 C   0  0  0  0  0  0  0  0  0  0  0  0
   -6.6949   23.5372    2.7422 C   0  0  0  0  0  0  0  0  0  0  0  0
   -6.1029   24.3950    3.6770 C   0  0  0  0  0  0  0  0  0  0  0  0
   -7.3161   22.9127    0.3720 C   0  0  0  0  0  0  0  0  0  0  0  0
   -6.3912   22.3037   -0.4220 F   0  0  0  0  0  0  0  0  0  0  0  0
   -8.0316   21.9059    0.9472 F   0  0  0  0  0  0  0  0  0  0  0  0
   -8.1742   23.5479   -0.4725 F   0  0  0  0  0  0  0  0  0  0  0  0
   -5.5643   27.8395    4.5698 C   0  0  0  0  0  0  0  0  0  0  0  0
   -6.5879   27.6303    5.6858 C   0  0  0  0  0  0  0  0  0  0  0  0
   -6.9026   28.9474    6.3992 C   0  0  0  0  0  0  0  0  0  0  0  0
   -6.3032   29.0100    7.8045 C   0  0  0  0  0  0  0  0  0  0  0  0
   -4.3591   30.2485    7.2099 C   0  0  0  0  0  0  0  0  0  0  0  0
   -4.8794   29.0680    7.8052 O   0  0  0  0  0  0  0  0  0  0  0  0
   -3.2077   27.1799    5.6121 O   0  0  0  0  0  0  0  0  0  0  0  0
   -1.8299   26.9089    5.8783 C   0  0  0  0  0  0  0  0  0  0  0  0
   -1.4741   27.5211    7.2341 C   0  0  0  0  0  0  0  0  0  0  0  0
   -2.4681   27.2316    8.2682 N   0  0  0  0  0  0  0  0  0  0  0  0
   -2.5158   26.2246    8.4229 H   0  0  0  0  0  0  0  0  0  0  0  0
   -2.1622   27.6405    9.1505 H   0  0  0  0  0  0  0  0  0  0  0  0
 17 18  1  0  0  0
 18 16  1  0  0  0
 16 15  1  0  0  0
 15 14  1  0  0  0
 14 13  1  0  0  0
 13  1  1  0  0  0
  1  2  2  0  0  0
  2 19  1  0  0  0
 19 20  1  0  0  0
 20 21  1  0  0  0
 21 22  1  0  0  0
  1  3  1  0  0  0
  3  4  1  0  0  0
  4  5  2  0  0  0
  5  6  1  0  0  0
  6  9  1  0  0  0
  9 10  1  0  0  0
  9 11  1  0  0  0
  9 12  1  0  0  0
  6  7  2  0  0  0
  7  8  1  0  0  0
  8  3  2  0  0  0
 22 23  1  0  0  0
 22 24  1  0  0  0
M  END
> <minimizedAffinity>
-7.07376

$$$$
OCNT-2127780


 19 20  0  0  0  0  0  0  0  0999 V2000
   -5.1304   25.0089    2.9171 C   0  0  0  0  0  0  0  0  0  0  0  0
   -5.6103   26.2779    3.6034 C   0  0  0  0  0  0  0  0  0  0  0  0
   -5.6080   27.5013    2.9133 C   0  0  0  0  0  0  0  0  0  0  0  0
   -6.0390   28.6728    3.5394 C   0  0  0  0  0  0  0  0  0  0  0  0
   -6.4742   28.6382    4.8625 C   0  0  0  0  0  0  0  0  0  0  0  0
   -6.4790   27.4335    5.5618 C   0  0  0  0  0  0  0  0  0  0  0  0
   -6.0490   26.2616    4.9374 C   0  0  0  0  0  0  0  0  0  0  0  0
   -6.0116   24.6082    1.7408 C   0  0  0  0  0  0  0  0  0  0  0  0
   -5.9701   25.3558    0.5512 C   0  0  0  0  0  0  0  0  0  0  0  0
   -6.7608   25.0012   -0.5439 C   0  0  0  0  0  0  0  0  0  0  0  0
   -7.6008   23.8927   -0.4681 C   0  0  0  0  0  0  0  0  0  0  0  0
   -7.6487   23.1361    0.7004 C   0  0  0  0  0  0  0  0  0  0  0  0
   -6.8582   23.4892    1.7958 C   0  0  0  0  0  0  0  0  0  0  0  0
   -3.7763   25.2091    2.4782 O   0  0  0  0  0  0  0  0  0  0  0  0
   -2.7939   24.9446    3.4820 C   0  0  0  0  0  0  0  0  0  0  0  0
   -1.9422   26.1924    3.7905 C   0  0  0  0  0  0  0  0  0  0  0  0
   -0.7646   26.7246    5.8581 C   0  0  0  0  0  0  0  0  0  0  0  0
   -0.7218   26.0007    4.5906 N   0  0  0  0  0  0  0  0  0  0  0  0
    0.4956   26.3123    3.8483 C   0  0  0  0  0  0  0  0  0  0  0  0
 17 18  1  0  0  0
 18 19  1  0  0  0
 18 16  1  0  0  0
 16 15  1  0  0  0
 15 14  1  0  0  0
 14  1  1  0  0  0
  1  2  1  0  0  0
  2  3  2  0  0  0
  3  4  1  0  0  0
  4  5  2  0  0  0
  5  6  1  0  0  0
  6  7  2  0  0  0
  1  8  1  0  0  0
  8  9  2  0  0  0
  9 10  1  0  0  0
 10 11  2  0  0  0
 11 12  1  0  0  0
 12 13  2  0  0  0
  7  2  1  0  0  0
 13  8  1  0  0  0
M  END
> <minimizedAffinity>
-7.70339

$$$$
OCNT-2308466


 28 31  0  0  0  0  0  0  0  0999 V2000
    1.0051   28.9265    7.9521 O   0  0  0  0  0  0  0  0  0  0  0  0
   -0.1880   29.0618    7.7096 C   0  0  0  0  0  0  0  0  0  0  0  0
   -0.8755   28.3629    6.7411 N   0  0  0  0  0  0  0  0  0  0  0  0
   -1.8702   28.5742    6.6623 H   0  0  0  0  0  0  0  0  0  0  0  0
   -1.0363   30.0310    8.4751 C   0  0  0  0  0  0  0  0  0  0  0  0
   -0.4662   31.1509    9.0587 C   0  0  0  0  0  0  0  0  0  0  0  0
   -1.2996   32.0152    9.7588 C   0  0  0  0  0  0  0  0  0  0  0  0
   -2.6647   31.7345    9.8531 C   0  0  0  0  0  0  0  0  0  0  0  0
   -3.1633   30.5848    9.2385 C   0  0  0  0  0  0  0  0  0  0  0  0
   -2.3604   29.7306    8.5501 N   0  0  0  0  0  0  0  0  0  0  0  0
   -4.5601   30.2672    9.3186 N   0  0  0  0  0  0  0  0  0  0  0  0
   -5.6408   31.1300    9.3201 C   0  0  0  0  0  0  0  0  0  0  0  0
   -6.7765   30.3603    9.4131 C   0  0  0  0  0  0  0  0  0  0  0  0
   -6.3052   29.0421    9.4640 C   0  0  0  0  0  0  0  0  0  0  0  0
   -4.9761   28.9715    9.4088 N   0  0  0  0  0  0  0  0  0  0  0  0
   -0.2803   27.3451    5.9053 C   0  0  0  0  0  0  0  0  0  0  0  0
   -1.2710   26.2149    5.5867 C   0  0  0  0  0  0  0  0  0  0  0  0
   -1.4394   26.0237    4.0683 C   0  0  0  0  0  0  0  0  0  0  0  0
   -2.7989   25.4110    3.7426 C   0  0  0  0  0  0  0  0  0  0  0  0
   -3.9068   26.3036    4.1139 N   0  0  0  0  0  0  0  0  0  0  0  0
   -3.6422   27.0970    5.3239 C   0  0  0  0  0  0  0  0  0  0  0  0
   -2.6298   26.4529    6.2706 C   0  0  0  0  0  0  0  0  0  0  0  0
   -5.1712   25.5524    4.1810 C   0  0  0  0  0  0  0  0  0  0  0  0
   -5.6009   25.0279    2.8358 C   0  0  0  0  0  0  0  0  0  0  0  0
   -5.7364   25.7178    1.6452 C   0  0  0  0  0  0  0  0  0  0  0  0
   -6.1539   24.8791    0.5730 C   0  0  0  0  0  0  0  0  0  0  0  0
   -6.3164   23.5729    0.9759 C   0  0  0  0  0  0  0  0  0  0  0  0
   -5.9659   23.3640    2.6364 S   0  0  0  0  0  0  0  0  0  0  0  0
  1  2  2  0  0  0
  2  3  1  0  0  0
  3 16  1  0  0  0
 16 17  1  0  0  0
 17 18  1  0  0  0
 18 19  1  0  0  0
 19 20  1  0  0  0
 20 23  1  0  0  0
 23 24  1  0  0  0
 24 25  2  0  0  0
 25 26  1  0  0  0
 26 27  2  0  0  0
 27 28  1  0  0  0
 20 21  1  0  0  0
 21 22  1  0  0  0
  2  5  1  0  0  0
  5  6  1  0  0  0
  6  7  2  0  0  0
  7  8  1  0  0  0
  8  9  2  0  0  0
  9 11  1  0  0  0
 11 12  1  0  0  0
 12 13  2  0  0  0
 13 14  1  0  0  0
 14 15  2  0  0  0
  9 10  1  0  0  0
 22 17  1  0  0  0
 10  5  2  0  0  0
 28 24  1  0  0  0
 15 11  1  0  0  0
  3  4  1  0  0  0
M  END
> <minimizedAffinity>
-9.10206

$$$$
OCNT-2308478


 30 33  0  0  0  0  0  0  0  0999 V2000
   -5.6600   27.2932    5.6796 N   0  0  0  0  0  0  0  0  0  0  0  0
   -6.0618   28.5302    6.1280 C   0  0  0  0  0  0  0  0  0  0  0  0
   -6.8151   29.2479    5.4787 O   0  0  0  0  0  0  0  0  0  0  0  0
   -4.9804   26.7657    6.2066 H   0  0  0  0  0  0  0  0  0  0  0  0
   -7.0209   23.1485    5.2294 C   0  0  0  0  0  0  0  0  0  0  0  0
   -6.0187   22.4555    4.5369 C   0  0  0  0  0  0  0  0  0  0  0  0
   -5.0459   23.1472    3.8127 C   0  0  0  0  0  0  0  0  0  0  0  0
   -5.0545   24.5398    3.7744 C   0  0  0  0  0  0  0  0  0  0  0  0
   -4.0643   25.1239    3.0325 O   0  0  0  0  0  0  0  0  0  0  0  0
   -3.8935   26.5268    3.2473 C   0  0  0  0  0  0  0  0  0  0  0  0
   -5.2157   27.2732    3.2475 C   0  0  0  0  0  0  0  0  0  0  0  0
   -6.0857   26.7609    4.3952 C   0  0  0  0  0  0  0  0  0  0  0  0
   -6.0525   25.2549    4.4408 C   0  0  0  0  0  0  0  0  0  0  0  0
   -7.0262   24.5511    5.1720 C   0  0  0  0  0  0  0  0  0  0  0  0
   -7.5835   22.0096    7.4074 C   0  0  0  0  0  0  0  0  0  0  0  0
   -8.0918   22.4212    6.0235 C   0  0  0  0  0  0  0  0  0  0  0  0
   -9.3709   23.2544    6.1373 C   0  0  0  0  0  0  0  0  0  0  0  0
   -5.5203   28.9278    7.4225 C   0  0  0  0  0  0  0  0  0  0  0  0
   -6.2070   29.1675    8.6000 C   0  0  0  0  0  0  0  0  0  0  0  0
   -5.2788   29.5370    9.5256 N   0  0  0  0  0  0  0  0  0  0  0  0
   -4.0303   29.5619    9.0493 N   0  0  0  0  0  0  0  0  0  0  0  0
   -4.1535   29.1827    7.7667 C   0  0  0  0  0  0  0  0  0  0  0  0
   -5.4262   29.7916   10.4974 H   0  0  0  0  0  0  0  0  0  0  0  0
   -2.9360   29.0859    6.8686 C   0  0  0  0  0  0  0  0  0  0  0  0
   -2.0943   30.3727    6.9051 C   0  0  0  0  0  0  0  0  0  0  0  0
   -1.2202   30.4528    8.1567 C   0  0  0  0  0  0  0  0  0  0  0  0
   -0.4043   29.1762    8.3538 C   0  0  0  0  0  0  0  0  0  0  0  0
   -1.2468   27.9796    8.3944 N   0  0  0  0  0  0  0  0  0  0  0  0
   -2.0398   27.8606    7.1584 C   0  0  0  0  0  0  0  0  0  0  0  0
   -1.9356   28.1019    9.1492 H   0  0  0  0  0  0  0  0  0  0  0  0
 15 16  1  0  0  0
 16 17  1  0  0  0
 16  5  1  0  0  0
  5  6  1  0  0  0
  6  7  2  0  0  0
  7  8  1  0  0  0
  8  9  1  0  0  0
  9 10  1  0  0  0
 10 11  1  0  0  0
 11 12  1  0  0  0
 12  1  1  0  0  0
  1  2  1  0  0  0
  2  3  2  0  0  0
  2 18  1  0  0  0
 18 19  2  0  0  0
 19 20  1  0  0  0
 20 21  1  0  0  0
 21 22  2  0  0  0
 22 24  1  0  0  0
 24 25  1  0  0  0
 25 26  1  0  0  0
 26 27  1  0  0  0
 27 28  1  0  0  0
 28 29  1  0  0  0
 12 13  1  0  0  0
 13 14  1  0  0  0
 14  5  2  0  0  0
 13  8  2  0  0  0
 22 18  1  0  0  0
 29 24  1  0  0  0
  1  4  1  0  0  0
 20 23  1  0  0  0
 28 30  1  0  0  0
M  END
> <minimizedAffinity>
-9.71891

$$$$
OCNT-2308483


 22 25  0  0  0  0  0  0  0  0999 V2000
   -7.6646   22.6160   -0.6981 C   0  0  0  0  0  0  0  0  0  0  0  0
   -7.0279   23.5693    0.2772 C   0  0  0  0  0  0  0  0  0  0  0  0
   -6.5615   24.8013   -0.1906 C   0  0  0  0  0  0  0  0  0  0  0  0
   -5.9622   25.7035    0.6818 C   0  0  0  0  0  0  0  0  0  0  0  0
   -5.8159   25.3876    2.0387 C   0  0  0  0  0  0  0  0  0  0  0  0
   -5.1960   26.2893    2.9179 C   0  0  0  0  0  0  0  0  0  0  0  0
   -5.0435   25.9658    4.2634 C   0  0  0  0  0  0  0  0  0  0  0  0
   -5.5319   24.7359    4.6707 C   0  0  0  0  0  0  0  0  0  0  0  0
   -6.1349   23.8420    3.8493 N   0  0  0  0  0  0  0  0  0  0  0  0
   -6.2850   24.1539    2.5442 C   0  0  0  0  0  0  0  0  0  0  0  0
   -6.9103   23.2604    1.6552 C   0  0  0  0  0  0  0  0  0  0  0  0
   -7.4023   21.9309    2.1789 C   0  0  0  0  0  0  0  0  0  0  0  0
   -4.3992   26.8691    5.1980 C   0  0  0  0  0  0  0  0  0  0  0  0
   -5.0880   27.8355    5.9049 C   0  0  0  0  0  0  0  0  0  0  0  0
   -4.1958   28.4925    6.7110 N   0  0  0  0  0  0  0  0  0  0  0  0
   -2.9329   27.9775    6.5386 C   0  0  0  0  0  0  0  0  0  0  0  0
   -1.7284   28.3278    7.1354 C   0  0  0  0  0  0  0  0  0  0  0  0
   -0.6028   27.6654    6.7872 N   0  0  0  0  0  0  0  0  0  0  0  0
   -0.6810   26.6825    5.8642 C   0  0  0  0  0  0  0  0  0  0  0  0
   -1.8484   26.2813    5.2317 C   0  0  0  0  0  0  0  0  0  0  0  0
   -3.0255   26.9567    5.5916 C   0  0  0  0  0  0  0  0  0  0  0  0
   -4.4288   29.2458    7.3439 H   0  0  0  0  0  0  0  0  0  0  0  0
  1  2  1  0  0  0
  2  3  2  0  0  0
  3  4  1  0  0  0
  4  5  2  0  0  0
  5  6  1  0  0  0
  6  7  2  0  0  0
  7 13  1  0  0  0
 13 14  2  0  0  0
 14 15  1  0  0  0
 15 16  1  0  0  0
 16 17  2  0  0  0
 17 18  1  0  0  0
 18 19  2  0  0  0
 19 20  1  0  0  0
 20 21  2  0  0  0
  7  8  1  0  0  0
  8  9  2  0  0  0
  9 10  1  0  0  0
 10 11  2  0  0  0
 11 12  1  0  0  0
 11  2  1  0  0  0
 10  5  1  0  0  0
 21 13  1  0  0  0
 21 16  1  0  0  0
 15 22  1  0  0  0
M  END
> <minimizedAffinity>
-9.29183

$$$$
OCNT-2308499


 21 23  0  0  0  0  0  0  0  0999 V2000
   -5.8785   30.3282    7.1991 C   0  0  0  0  0  0  0  0  0  0  0  0
   -4.5364   30.6045    6.4973 C   0  0  0  0  0  0  0  0  0  0  0  0
   -3.8855   29.9495    7.6027 N   0  0  0  0  0  0  0  0  0  0  0  0
   -5.0900   29.2513    7.9682 C   0  0  0  0  0  0  0  0  0  0  0  0
   -2.5426   29.4917    7.6438 C   0  0  0  0  0  0  0  0  0  0  0  0
   -2.1489   28.4838    6.7364 C   0  0  0  0  0  0  0  0  0  0  0  0
   -0.8423   27.9895    6.7137 C   0  0  0  0  0  0  0  0  0  0  0  0
   -0.3728   26.6323    5.4854 Br  0  0  0  0  0  0  0  0  0  0  0  0
    0.1119   28.4897    7.5843 C   0  0  0  0  0  0  0  0  0  0  0  0
   -0.2536   29.4950    8.4705 C   0  0  0  0  0  0  0  0  0  0  0  0
    0.6870   29.9766    9.2976 F   0  0  0  0  0  0  0  0  0  0  0  0
   -1.5574   30.0078    8.5118 C   0  0  0  0  0  0  0  0  0  0  0  0
   -1.8108   31.0626    9.4452 C   0  0  0  0  0  0  0  0  0  0  0  0
   -2.0115   31.9152   10.2080 N   0  0  0  0  0  0  0  0  0  0  0  0
   -6.9645   29.8354    6.3870 O   0  0  0  0  0  0  0  0  0  0  0  0
   -5.7084   26.3501    3.2934 C   0  0  0  0  0  0  0  0  0  0  0  0
   -6.0162   27.6326    3.8781 N   0  0  0  0  0  0  0  0  0  0  0  0
   -6.3991   27.8773    5.1642 C   0  0  0  0  0  0  0  0  0  0  0  0
   -6.5801   29.2343    5.2463 C   0  0  0  0  0  0  0  0  0  0  0  0
   -6.2901   29.7230    3.9577 C   0  0  0  0  0  0  0  0  0  0  0  0
   -5.9333   28.7444    3.1193 N   0  0  0  0  0  0  0  0  0  0  0  0
 16 17  1  0  0  0
 17 18  1  0  0  0
 18 19  2  0  0  0
 19 15  1  0  0  0
 15  1  1  0  0  0
  1  2  1  0  0  0
  2  3  1  0  0  0
  3  5  1  0  0  0
  5  6  1  0  0  0
  6  7  2  0  0  0
  7  8  1  0  0  0
  7  9  1  0  0  0
  9 10  2  0  0  0
 10 11  1  0  0  0
 10 12  1  0  0  0
 12 13  1  0  0  0
 13 14  3  0  0  0
  3  4  1  0  0  0
 19 20  1  0  0  0
 20 21  2  0  0  0
 21 17  1  0  0  0
  4  1  1  0  0  0
 12  5  2  0  0  0
M  END
> <minimizedAffinity>
-7.59361

$$$$
OCNT-2308519


 23 27  0  0  0  0  0  0  0  0999 V2000
   -5.3681   22.7686    5.2116 O   0  0  0  0  0  0  0  0  0  0  0  0
   -5.5754   23.2953    4.1209 C   0  0  0  0  0  0  0  0  0  0  0  0
   -4.9330   24.5134    3.7390 C   0  0  0  0  0  0  0  0  0  0  0  0
   -4.0436   25.3227    4.4081 C   0  0  0  0  0  0  0  0  0  0  0  0
   -3.6887   26.3986    3.6353 N   0  0  0  0  0  0  0  0  0  0  0  0
   -4.3542   26.2423    2.5100 C   0  0  0  0  0  0  0  0  0  0  0  0
   -5.1251   25.1091    2.5257 N   0  0  0  0  0  0  0  0  0  0  0  0
   -5.9784   24.5685    1.5522 C   0  0  0  0  0  0  0  0  0  0  0  0
   -6.1502   25.2005    0.3129 C   0  0  0  0  0  0  0  0  0  0  0  0
   -7.0063   24.6373   -0.6286 C   0  0  0  0  0  0  0  0  0  0  0  0
   -7.6827   23.4588   -0.3313 C   0  0  0  0  0  0  0  0  0  0  0  0
   -7.5069   22.8337    0.9092 C   0  0  0  0  0  0  0  0  0  0  0  0
   -6.6486   23.3706    1.8779 C   0  0  0  0  0  0  0  0  0  0  0  0
   -6.4477   22.7498    3.1609 N   0  0  0  0  0  0  0  0  0  0  0  0
   -7.0884   21.4824    3.5069 C   0  0  0  0  0  0  0  0  0  0  0  0
   -8.0591   21.6656    4.6400 C   0  0  0  0  0  0  0  0  0  0  0  0
   -8.9146   22.9145    4.6962 C   0  0  0  0  0  0  0  0  0  0  0  0
   -9.0705   23.7159    5.9549 C   0  0  0  0  0  0  0  0  0  0  0  0
   -9.3995   22.9506    7.2300 C   0  0  0  0  0  0  0  0  0  0  0  0
  -10.8505   22.4791    7.3281 C   0  0  0  0  0  0  0  0  0  0  0  0
  -11.4113   21.7514    6.1062 C   0  0  0  0  0  0  0  0  0  0  0  0
  -10.4023   20.8335    5.4277 C   0  0  0  0  0  0  0  0  0  0  0  0
   -9.5591   21.5693    4.4309 C   0  0  0  0  0  0  0  0  0  0  0  0
  1  2  2  0  0  0
  2  3  1  0  0  0
  3  4  2  0  0  0
  4  5  1  0  0  0
  5  6  2  0  0  0
  6  7  1  0  0  0
  7  8  1  0  0  0
  8  9  2  0  0  0
  9 10  1  0  0  0
 10 11  2  0  0  0
 11 12  1  0  0  0
 12 13  2  0  0  0
 13 14  1  0  0  0
 14 15  1  0  0  0
 15 16  1  0  0  0
 16 17  1  0  0  0
 17 18  1  0  0  0
 18 19  1  0  0  0
 19 20  1  0  0  0
 20 21  1  0  0  0
 21 22  1  0  0  0
 22 23  1  0  0  0
 14  2  1  0  0  0
 23 16  1  0  0  0
  7  3  1  0  0  0
 13  8  1  0  0  0
 23 17  1  0  0  0
M  END
> <minimizedAffinity>
-9.59580

$$$$
OCNT-2308520


 27 30  0  0  0  0  0  0  0  0999 V2000
   -5.3852   28.9988    8.3100 O   0  0  0  0  0  0  0  0  0  0  0  0
   -5.1499   30.0839    7.7973 C   0  0  0  0  0  0  0  0  0  0  0  0
   -5.9023   30.6608    6.8113 N   0  0  0  0  0  0  0  0  0  0  0  0
   -4.0920   30.8777    8.1468 N   0  0  0  0  0  0  0  0  0  0  0  0
   -5.4104   31.3164    6.2223 H   0  0  0  0  0  0  0  0  0  0  0  0
   -4.2408   31.8715    8.0431 H   0  0  0  0  0  0  0  0  0  0  0  0
   -3.2311   30.4772    9.2444 C   0  0  0  0  0  0  0  0  0  0  0  0
   -2.4866   31.6562    9.9038 C   0  0  0  0  0  0  0  0  0  0  0  0
   -1.1825   31.7954    9.2779 O   0  0  0  0  0  0  0  0  0  0  0  0
   -0.9381   30.5461    8.7683 C   0  0  0  0  0  0  0  0  0  0  0  0
    0.2882   30.1276    8.2958 C   0  0  0  0  0  0  0  0  0  0  0  0
    0.3844   28.8287    7.7915 C   0  0  0  0  0  0  0  0  0  0  0  0
   -0.7417   27.9887    7.7613 C   0  0  0  0  0  0  0  0  0  0  0  0
   -1.9783   28.4381    8.2323 C   0  0  0  0  0  0  0  0  0  0  0  0
   -2.0563   29.7252    8.7378 C   0  0  0  0  0  0  0  0  0  0  0  0
   -7.0238   29.9628    6.2220 C   0  0  0  0  0  0  0  0  0  0  0  0
   -6.5718   28.8987    5.2638 C   0  0  0  0  0  0  0  0  0  0  0  0
   -6.2022   29.2058    3.9526 C   0  0  0  0  0  0  0  0  0  0  0  0
   -5.8040   28.1919    3.0808 C   0  0  0  0  0  0  0  0  0  0  0  0
   -5.7893   26.8810    3.5469 C   0  0  0  0  0  0  0  0  0  0  0  0
   -6.1488   26.5566    4.8167 N   0  0  0  0  0  0  0  0  0  0  0  0
   -6.5280   27.5626    5.6374 C   0  0  0  0  0  0  0  0  0  0  0  0
   -5.3923   25.8165    2.6921 N   0  0  0  0  0  0  0  0  0  0  0  0
   -5.8233   25.5173    1.4178 C   0  0  0  0  0  0  0  0  0  0  0  0
   -5.1287   24.3907    1.0418 C   0  0  0  0  0  0  0  0  0  0  0  0
   -4.2851   23.9827    2.0358 N   0  0  0  0  0  0  0  0  0  0  0  0
   -4.4615   24.8513    3.0083 C   0  0  0  0  0  0  0  0  0  0  0  0
  1  2  2  0  0  0
  2  3  1  0  0  0
  3 16  1  0  0  0
 16 17  1  0  0  0
 17 18  2  0  0  0
 18 19  1  0  0  0
 19 20  2  0  0  0
 20 23  1  0  0  0
 23 24  1  0  0  0
 24 25  2  0  0  0
 25 26  1  0  0  0
 26 27  2  0  0  0
 20 21  1  0  0  0
 21 22  2  0  0  0
  2  4  1  0  0  0
  4  7  1  0  0  0
  7  8  1  0  0  0
  8  9  1  0  0  0
  9 10  1  0  0  0
 10 11  2  0  0  0
 11 12  1  0  0  0
 12 13  2  0  0  0
 13 14  1  0  0  0
 14 15  2  0  0  0
 22 17  1  0  0  0
 15  7  1  0  0  0
 27 23  1  0  0  0
 15 10  1  0  0  0
  3  5  1  0  0  0
  4  6  1  0  0  0
M  END
> <minimizedAffinity>
-9.33836

$$$$
OCNT-2308523


 28 30  0  0  0  0  0  0  0  0999 V2000
   -5.0785   28.7332    5.4940 C   0  0  0  0  0  0  0  0  0  0  0  0
   -5.8013   29.6430    4.7081 C   0  0  0  0  0  0  0  0  0  0  0  0
   -6.1859   29.3195    3.4040 C   0  0  0  0  0  0  0  0  0  0  0  0
   -5.8524   28.0780    2.8697 C   0  0  0  0  0  0  0  0  0  0  0  0
   -5.1337   27.1630    3.6475 C   0  0  0  0  0  0  0  0  0  0  0  0
   -4.7593   27.4835    4.9597 C   0  0  0  0  0  0  0  0  0  0  0  0
   -5.5680   29.1710    7.9174 C   0  0  0  0  0  0  0  0  0  0  0  0
   -6.7051   28.7076    7.9541 O   0  0  0  0  0  0  0  0  0  0  0  0
   -4.7381   29.1449    6.8002 N   0  0  0  0  0  0  0  0  0  0  0  0
   -3.7661   29.3812    6.9469 H   0  0  0  0  0  0  0  0  0  0  0  0
   -3.1355   31.2852    8.1495 N   0  0  0  0  0  0  0  0  0  0  0  0
   -3.8557   32.4102    8.7857 C   0  0  0  0  0  0  0  0  0  0  0  0
   -5.3431   32.0886    8.9864 C   0  0  0  0  0  0  0  0  0  0  0  0
   -5.5205   30.9036    9.7736 O   0  0  0  0  0  0  0  0  0  0  0  0
   -4.8773   29.7734    9.1768 C   0  0  0  0  0  0  0  0  0  0  0  0
   -3.3729   30.0634    8.9456 C   0  0  0  0  0  0  0  0  0  0  0  0
   -0.8355   30.8718    9.0219 C   0  0  0  0  0  0  0  0  0  0  0  0
   -1.7086   31.6095    8.0129 C   0  0  0  0  0  0  0  0  0  0  0  0
   -4.7866   25.8220    3.1094 C   0  0  0  0  0  0  0  0  0  0  0  0
   -3.6219   25.5948    2.8117 O   0  0  0  0  0  0  0  0  0  0  0  0
   -5.8647   24.9630    2.9898 N   0  0  0  0  0  0  0  0  0  0  0  0
   -6.7793   25.3513    3.1816 H   0  0  0  0  0  0  0  0  0  0  0  0
   -5.8402   23.6235    2.5451 C   0  0  0  0  0  0  0  0  0  0  0  0
   -5.4447   22.5496    3.3357 C   0  0  0  0  0  0  0  0  0  0  0  0
   -5.4717   21.2781    2.7841 C   0  0  0  0  0  0  0  0  0  0  0  0
   -5.8630   21.0110    1.5199 N   0  0  0  0  0  0  0  0  0  0  0  0
   -6.2409   22.0670    0.7732 C   0  0  0  0  0  0  0  0  0  0  0  0
   -6.2482   23.3742    1.2340 C   0  0  0  0  0  0  0  0  0  0  0  0
 17 18  1  0  0  0
 18 11  1  0  0  0
 11 12  1  0  0  0
 12 13  1  0  0  0
 13 14  1  0  0  0
 14 15  1  0  0  0
 15  7  1  0  0  0
  7  8  2  0  0  0
  7  9  1  0  0  0
  9  1  1  0  0  0
  1  2  2  0  0  0
  2  3  1  0  0  0
  3  4  2  0  0  0
  4  5  1  0  0  0
  5 19  1  0  0  0
 19 20  2  0  0  0
 19 21  1  0  0  0
 21 23  1  0  0  0
 23 24  2  0  0  0
 24 25  1  0  0  0
 25 26  2  0  0  0
 26 27  1  0  0  0
 27 28  2  0  0  0
  5  6  2  0  0  0
 15 16  1  0  0  0
 16 11  1  0  0  0
  6  1  1  0  0  0
 28 23  1  0  0  0
  9 10  1  0  0  0
 21 22  1  0  0  0
M  END
> <minimizedAffinity>
-9.02177

$$$$
OCNT-2308526


 27 29  0  0  0  0  0  0  0  0999 V2000
   -4.2876   31.4168    6.1081 C   0  0  0  0  0  0  0  0  0  0  0  0
   -3.6690   31.6167    7.4790 C   0  0  0  0  0  0  0  0  0  0  0  0
   -4.0682   32.7594    8.2077 C   0  0  0  0  0  0  0  0  0  0  0  0
   -3.6038   32.9886    9.4988 C   0  0  0  0  0  0  0  0  0  0  0  0
   -2.7361   32.0778   10.0819 C   0  0  0  0  0  0  0  0  0  0  0  0
   -2.3247   30.9478    9.3684 C   0  0  0  0  0  0  0  0  0  0  0  0
   -2.7607   30.6935    8.0543 C   0  0  0  0  0  0  0  0  0  0  0  0
   -2.3110   29.5749    7.3442 N   0  0  0  0  0  0  0  0  0  0  0  0
   -1.0022   29.7471    6.6646 C   0  0  0  0  0  0  0  0  0  0  0  0
   -0.0541   28.5501    6.9189 C   0  0  0  0  0  0  0  0  0  0  0  0
   -0.6087   27.2102    6.6186 N   0  0  0  0  0  0  0  0  0  0  0  0
   -0.2860   26.7866    5.2587 C   0  0  0  0  0  0  0  0  0  0  0  0
   -2.0754   27.1769    6.8357 C   0  0  0  0  0  0  0  0  0  0  0  0
   -2.5715   28.2207    7.8616 C   0  0  0  0  0  0  0  0  0  0  0  0
   -5.4299   30.4968    6.1648 N   0  0  0  0  0  0  0  0  0  0  0  0
   -5.5787   30.2133    7.1311 H   0  0  0  0  0  0  0  0  0  0  0  0
   -5.5131   26.9974    3.6780 C   0  0  0  0  0  0  0  0  0  0  0  0
   -4.0839   26.9766    3.8458 O   0  0  0  0  0  0  0  0  0  0  0  0
   -5.9071   28.3512    3.0421 C   0  0  0  0  0  0  0  0  0  0  0  0
   -6.1153   29.4849    4.0591 C   0  0  0  0  0  0  0  0  0  0  0  0
   -5.2458   29.3198    5.3086 C   0  0  0  0  0  0  0  0  0  0  0  0
   -5.5917   28.0064    6.0347 C   0  0  0  0  0  0  0  0  0  0  0  0
   -6.0961   26.8976    5.0983 C   0  0  0  0  0  0  0  0  0  0  0  0
   -3.6664   27.1946    2.9961 H   0  0  0  0  0  0  0  0  0  0  0  0
   -4.8453   25.4034    1.7394 C   0  0  0  0  0  0  0  0  0  0  0  0
   -5.8909   25.7620    2.8018 C   0  0  0  0  0  0  0  0  0  0  0  0
   -6.2073   24.5100    3.6342 C   0  0  0  0  0  0  0  0  0  0  0  0
 25 26  1  0  0  0
 26 27  1  0  0  0
 26 17  1  0  0  0
 17 18  1  0  0  0
 17 19  1  0  0  0
 19 20  1  0  0  0
 20 21  1  0  0  0
 21 15  1  0  0  0
 15  1  1  0  0  0
  1  2  1  0  0  0
  2  3  2  0  0  0
  3  4  1  0  0  0
  4  5  2  0  0  0
  5  6  1  0  0  0
  6  7  2  0  0  0
  7  8  1  0  0  0
  8  9  1  0  0  0
  9 10  1  0  0  0
 10 11  1  0  0  0
 11 12  1  0  0  0
 11 13  1  0  0  0
 13 14  1  0  0  0
 21 22  1  0  0  0
 22 23  1  0  0  0
 23 17  1  0  0  0
  7  2  1  0  0  0
 14  8  1  0  0  0
 18 24  1  0  0  0
 15 16  1  0  0  0
M  END
> <minimizedAffinity>
-9.27179

$$$$
OCNT-2308537


 26 30  0  0  0  0  0  0  0  0999 V2000
   -4.5844   24.5341    4.0505 C   0  0  0  0  0  0  0  0  0  0  0  0
   -4.0435   24.0703    2.6831 C   0  0  0  0  0  0  0  0  0  0  0  0
   -4.6408   24.8144    1.4816 C   0  0  0  0  0  0  0  0  0  0  0  0
   -5.6382   25.8914    1.8961 C   0  0  0  0  0  0  0  0  0  0  0  0
   -5.0710   26.7521    3.0293 C   0  0  0  0  0  0  0  0  0  0  0  0
   -4.5574   26.0076    4.1956 N   0  0  0  0  0  0  0  0  0  0  0  0
   -9.9772   22.4853    5.6229 C   0  0  0  0  0  0  0  0  0  0  0  0
   -9.6239   21.4569    4.7230 C   0  0  0  0  0  0  0  0  0  0  0  0
   -8.3917   21.4575    4.0521 C   0  0  0  0  0  0  0  0  0  0  0  0
   -7.5632   22.5429    4.3353 C   0  0  0  0  0  0  0  0  0  0  0  0
   -6.3244   22.7866    3.8224 O   0  0  0  0  0  0  0  0  0  0  0  0
   -5.9511   23.9769    4.4062 C   0  0  0  0  0  0  0  0  0  0  0  0
   -6.8349   24.4666    5.2616 N   0  0  0  0  0  0  0  0  0  0  0  0
   -7.8721   23.5727    5.2129 C   0  0  0  0  0  0  0  0  0  0  0  0
   -9.1034   23.5470    5.8799 C   0  0  0  0  0  0  0  0  0  0  0  0
   -3.2361   26.4945    4.6276 C   0  0  0  0  0  0  0  0  0  0  0  0
   -3.3146   27.4814    5.7449 C   0  0  0  0  0  0  0  0  0  0  0  0
   -4.3808   28.1744    6.0927 N   0  0  0  0  0  0  0  0  0  0  0  0
   -4.0419   28.9834    7.1477 N   0  0  0  0  0  0  0  0  0  0  0  0
   -2.7757   28.7732    7.4319 C   0  0  0  0  0  0  0  0  0  0  0  0
   -1.9841   29.4416    8.4956 C   0  0  0  0  0  0  0  0  0  0  0  0
   -0.7938   30.2190    7.9371 C   0  0  0  0  0  0  0  0  0  0  0  0
    0.3808   29.3320    7.5147 C   0  0  0  0  0  0  0  0  0  0  0  0
    0.1151   28.4331    6.3034 C   0  0  0  0  0  0  0  0  0  0  0  0
   -0.9188   27.3351    6.5578 C   0  0  0  0  0  0  0  0  0  0  0  0
   -2.2760   27.8314    6.5691 N   0  0  0  0  0  0  0  0  0  0  0  0
  7  8  2  0  0  0
  8  9  1  0  0  0
  9 10  2  0  0  0
 10 11  1  0  0  0
 11 12  1  0  0  0
 12  1  1  0  0  0
  1  2  1  0  0  0
  2  3  1  0  0  0
  3  4  1  0  0  0
  4  5  1  0  0  0
  5  6  1  0  0  0
  6 16  1  0  0  0
 16 17  1  0  0  0
 17 18  2  0  0  0
 18 19  1  0  0  0
 19 20  2  0  0  0
 20 21  1  0  0  0
 21 22  1  0  0  0
 22 23  1  0  0  0
 23 24  1  0  0  0
 24 25  1  0  0  0
 25 26  1  0  0  0
 12 13  2  0  0  0
 13 14  1  0  0  0
 14 15  2  0  0  0
 15  7  1  0  0  0
 14 10  1  0  0  0
  6  1  1  0  0  0
 26 17  1  0  0  0
 26 20  1  0  0  0
M  END
> <minimizedAffinity>
-9.73877

$$$$
OCNT-2308543


 24 26  0  0  0  0  0  0  0  0999 V2000
   -6.4204   30.8618    8.8024 C   0  0  0  0  0  0  0  0  0  0  0  0
   -5.4172   30.2170    7.9381 C   0  0  0  0  0  0  0  0  0  0  0  0
   -5.4519   29.5391    6.7369 C   0  0  0  0  0  0  0  0  0  0  0  0
   -4.1691   29.1614    6.3912 N   0  0  0  0  0  0  0  0  0  0  0  0
   -3.4206   29.5871    7.3923 C   0  0  0  0  0  0  0  0  0  0  0  0
   -4.1209   30.2470    8.3680 O   0  0  0  0  0  0  0  0  0  0  0  0
   -1.9781   29.4617    7.5851 C   0  0  0  0  0  0  0  0  0  0  0  0
   -1.1762   28.6980    6.7232 C   0  0  0  0  0  0  0  0  0  0  0  0
    0.2024   28.5966    6.9319 C   0  0  0  0  0  0  0  0  0  0  0  0
    0.7965   29.2567    8.0055 C   0  0  0  0  0  0  0  0  0  0  0  0
    0.0150   30.0188    8.8707 C   0  0  0  0  0  0  0  0  0  0  0  0
   -1.3627   30.1203    8.6608 C   0  0  0  0  0  0  0  0  0  0  0  0
   -6.5935   29.2511    5.8282 C   0  0  0  0  0  0  0  0  0  0  0  0
   -6.1781   28.8067    4.4291 C   0  0  0  0  0  0  0  0  0  0  0  0
   -5.8874   29.6078    3.5396 O   0  0  0  0  0  0  0  0  0  0  0  0
   -6.0890   27.4327    4.2199 N   0  0  0  0  0  0  0  0  0  0  0  0
   -6.4630   26.4185    5.2086 C   0  0  0  0  0  0  0  0  0  0  0  0
   -6.1796   24.9829    4.7304 C   0  0  0  0  0  0  0  0  0  0  0  0
   -4.8444   24.8427    4.1319 N   0  0  0  0  0  0  0  0  0  0  0  0
   -4.6476   25.7856    2.9941 C   0  0  0  0  0  0  0  0  0  0  0  0
   -3.2502   26.4190    3.1377 C   0  0  0  0  0  0  0  0  0  0  0  0
   -4.6825   24.9543    1.7020 C   0  0  0  0  0  0  0  0  0  0  0  0
   -5.7164   26.9206    2.8986 C   0  0  0  0  0  0  0  0  0  0  0  0
   -4.1522   25.0474    4.8537 H   0  0  0  0  0  0  0  0  0  0  0  0
  1  2  1  0  0  0
  2  3  2  0  0  0
  3 13  1  0  0  0
 13 14  1  0  0  0
 14 15  2  0  0  0
 14 16  1  0  0  0
 16 17  1  0  0  0
 17 18  1  0  0  0
 18 19  1  0  0  0
 19 20  1  0  0  0
 20 21  1  0  0  0
 20 22  1  0  0  0
 20 23  1  0  0  0
  3  4  1  0  0  0
  4  5  2  0  0  0
  5  7  1  0  0  0
  7  8  2  0  0  0
  8  9  1  0  0  0
  9 10  2  0  0  0
 10 11  1  0  0  0
 11 12  2  0  0  0
  5  6  1  0  0  0
  6  2  1  0  0  0
 23 16  1  0  0  0
 12  7  1  0  0  0
 19 24  1  0  0  0
M  END
> <minimizedAffinity>
-9.09685

$$$$
OCNT-2308546


 23 26  0  0  0  0  0  0  0  0999 V2000
   -4.0158   25.5435    3.8627 C   0  0  0  0  0  0  0  0  0  0  0  0
   -5.0902   25.7661    4.4004 O   0  0  0  0  0  0  0  0  0  0  0  0
   -3.7066   24.5664    2.9448 N   0  0  0  0  0  0  0  0  0  0  0  0
   -2.7569   24.5142    2.6033 H   0  0  0  0  0  0  0  0  0  0  0  0
   -4.5879   23.6316    2.4301 C   0  0  0  0  0  0  0  0  0  0  0  0
   -4.7443   22.3239    2.8245 C   0  0  0  0  0  0  0  0  0  0  0  0
   -5.7217   21.7565    2.0519 N   0  0  0  0  0  0  0  0  0  0  0  0
   -6.2131   22.6763    1.1546 C   0  0  0  0  0  0  0  0  0  0  0  0
   -7.2096   22.5420    0.1804 C   0  0  0  0  0  0  0  0  0  0  0  0
   -7.5061   23.6618   -0.6014 C   0  0  0  0  0  0  0  0  0  0  0  0
   -6.8322   24.8659   -0.4147 C   0  0  0  0  0  0  0  0  0  0  0  0
   -5.8379   24.9835    0.5641 C   0  0  0  0  0  0  0  0  0  0  0  0
   -5.5177   23.8682    1.3681 C   0  0  0  0  0  0  0  0  0  0  0  0
   -6.0385   20.8000    2.1273 H   0  0  0  0  0  0  0  0  0  0  0  0
   -2.2224   26.2819    5.5865 C   0  0  0  0  0  0  0  0  0  0  0  0
   -1.4806   25.7600    4.3894 C   0  0  0  0  0  0  0  0  0  0  0  0
   -2.8409   26.3889    4.2084 C   0  0  0  0  0  0  0  0  0  0  0  0
   -3.8976   28.7223    6.7279 C   0  0  0  0  0  0  0  0  0  0  0  0
   -2.4630   28.6046    6.7629 N   0  0  0  0  0  0  0  0  0  0  0  0
   -1.5965   29.5261    7.2775 C   0  0  0  0  0  0  0  0  0  0  0  0
   -0.3467   29.1382    7.1468 N   0  0  0  0  0  0  0  0  0  0  0  0
   -0.4092   27.9163    6.5270 C   0  0  0  0  0  0  0  0  0  0  0  0
   -1.7161   27.5643    6.2852 C   0  0  0  0  0  0  0  0  0  0  0  0
 18 19  1  0  0  0
 19 20  1  0  0  0
 20 21  2  0  0  0
 21 22  1  0  0  0
 22 23  2  0  0  0
 23 15  1  0  0  0
 15 16  1  0  0  0
 16 17  1  0  0  0
 17  1  1  0  0  0
  1  2  2  0  0  0
  1  3  1  0  0  0
  3  5  1  0  0  0
  5  6  2  0  0  0
  6  7  1  0  0  0
  7  8  1  0  0  0
  8  9  2  0  0  0
  9 10  1  0  0  0
 10 11  2  0  0  0
 11 12  1  0  0  0
 12 13  2  0  0  0
 23 19  1  0  0  0
 17 15  1  0  0  0
 13  5  1  0  0  0
 13  8  1  0  0  0
  3  4  1  0  0  0
  7 14  1  0  0  0
M  END
> <minimizedAffinity>
-8.58436

$$$$
OCNT-2308571


 25 27  0  0  0  0  0  0  0  0999 V2000
   -6.6108   24.1423   -0.4797 C   0  0  0  0  0  0  0  0  0  0  0  0
   -4.4314   24.9875    1.0784 O   0  0  0  0  0  0  0  0  0  0  0  0
   -5.5640   25.2772    1.4453 C   0  0  0  0  0  0  0  0  0  0  0  0
   -6.6986   24.9046    0.7557 N   0  0  0  0  0  0  0  0  0  0  0  0
   -7.6099   25.0060    1.1825 H   0  0  0  0  0  0  0  0  0  0  0  0
   -5.7670   26.0309    2.7126 C   0  0  0  0  0  0  0  0  0  0  0  0
   -5.8662   25.3031    3.9086 C   0  0  0  0  0  0  0  0  0  0  0  0
   -6.0519   25.9663    5.1231 C   0  0  0  0  0  0  0  0  0  0  0  0
   -6.1287   27.3553    5.1419 C   0  0  0  0  0  0  0  0  0  0  0  0
   -6.3085   27.9746    6.3174 F   0  0  0  0  0  0  0  0  0  0  0  0
   -6.0145   28.0872    3.9608 C   0  0  0  0  0  0  0  0  0  0  0  0
   -6.0944   29.8072    3.9849 Cl  0  0  0  0  0  0  0  0  0  0  0  0
   -5.8291   27.4304    2.7421 C   0  0  0  0  0  0  0  0  0  0  0  0
   -7.1974   22.7386   -0.3500 C   0  0  0  0  0  0  0  0  0  0  0  0
   -6.7981   22.1268    0.9345 C   0  0  0  0  0  0  0  0  0  0  0  0
   -5.8564   21.2420    1.1792 N   0  0  0  0  0  0  0  0  0  0  0  0
   -5.8865   21.0158    2.5401 N   0  0  0  0  0  0  0  0  0  0  0  0
   -6.8445   21.7786    3.0307 C   0  0  0  0  0  0  0  0  0  0  0  0
   -7.4699   22.5194    2.0590 O   0  0  0  0  0  0  0  0  0  0  0  0
   -7.3088   21.9387    4.4026 C   0  0  0  0  0  0  0  0  0  0  0  0
   -6.4174   22.0049    5.4847 C   0  0  0  0  0  0  0  0  0  0  0  0
   -6.8902   22.1580    6.7912 C   0  0  0  0  0  0  0  0  0  0  0  0
   -8.2595   22.2470    7.0322 C   0  0  0  0  0  0  0  0  0  0  0  0
   -9.1576   22.1829    5.9696 C   0  0  0  0  0  0  0  0  0  0  0  0
   -8.6849   22.0296    4.6636 C   0  0  0  0  0  0  0  0  0  0  0  0
  2  3  2  0  0  0
  3  4  1  0  0  0
  4  1  1  0  0  0
  1 14  1  0  0  0
 14 15  1  0  0  0
 15 16  2  0  0  0
 16 17  1  0  0  0
 17 18  2  0  0  0
 18 20  1  0  0  0
 20 21  2  0  0  0
 21 22  1  0  0  0
 22 23  2  0  0  0
 23 24  1  0  0  0
 24 25  2  0  0  0
 18 19  1  0  0  0
  3  6  1  0  0  0
  6  7  1  0  0  0
  7  8  2  0  0  0
  8  9  1  0  0  0
  9 10  1  0  0  0
  9 11  2  0  0  0
 11 12  1  0  0  0
 11 13  1  0  0  0
 19 15  1  0  0  0
 13  6  2  0  0  0
 25 20  1  0  0  0
  4  5  1  0  0  0
M  END
> <minimizedAffinity>
-9.23758

$$$$
OCNT-2308588


 23 25  0  0  0  0  0  0  0  0999 V2000
   -3.4864   25.7907    4.3610 C   0  0  0  0  0  0  0  0  0  0  0  0
   -2.4284   25.6932    3.5351 N   0  0  0  0  0  0  0  0  0  0  0  0
   -1.2106   25.9948    4.0220 C   0  0  0  0  0  0  0  0  0  0  0  0
   -0.9951   26.4051    5.3072 C   0  0  0  0  0  0  0  0  0  0  0  0
   -2.1306   26.4996    6.0715 C   0  0  0  0  0  0  0  0  0  0  0  0
   -3.3630   26.1872    5.6356 N   0  0  0  0  0  0  0  0  0  0  0  0
   -5.7219   24.0090    1.1887 N   0  0  0  0  0  0  0  0  0  0  0  0
   -5.8634   23.1071    2.3298 C   0  0  0  0  0  0  0  0  0  0  0  0
   -6.4832   23.6925    3.6003 C   0  0  0  0  0  0  0  0  0  0  0  0
   -5.4616   24.3825    4.5030 C   0  0  0  0  0  0  0  0  0  0  0  0
   -4.7441   25.4822    3.8784 N   0  0  0  0  0  0  0  0  0  0  0  0
   -5.1886   26.0768    2.6262 C   0  0  0  0  0  0  0  0  0  0  0  0
   -4.8653   25.1807    1.4118 C   0  0  0  0  0  0  0  0  0  0  0  0
   -7.2198   22.8305   -0.3354 C   0  0  0  0  0  0  0  0  0  0  0  0
   -6.9149   24.1714    0.3484 C   0  0  0  0  0  0  0  0  0  0  0  0
   -6.8711   25.2824   -0.7035 C   0  0  0  0  0  0  0  0  0  0  0  0
   -2.0406   26.8673    7.3991 O   0  0  0  0  0  0  0  0  0  0  0  0
   -1.7495   28.1918    7.6387 C   0  0  0  0  0  0  0  0  0  0  0  0
   -0.5944   28.6113    8.3045 C   0  0  0  0  0  0  0  0  0  0  0  0
   -0.3564   29.9742    8.4883 C   0  0  0  0  0  0  0  0  0  0  0  0
   -1.2618   30.9145    7.9957 C   0  0  0  0  0  0  0  0  0  0  0  0
   -2.4023   30.4952    7.3104 C   0  0  0  0  0  0  0  0  0  0  0  0
   -2.6428   29.1333    7.1252 C   0  0  0  0  0  0  0  0  0  0  0  0
 14 15  1  0  0  0
 15 16  1  0  0  0
 15  7  1  0  0  0
  7  8  1  0  0  0
  8  9  1  0  0  0
  9 10  1  0  0  0
 10 11  1  0  0  0
 11  1  1  0  0  0
  1  2  2  0  0  0
  2  3  1  0  0  0
  3  4  2  0  0  0
  4  5  1  0  0  0
  5 17  1  0  0  0
 17 18  1  0  0  0
 18 19  2  0  0  0
 19 20  1  0  0  0
 20 21  2  0  0  0
 21 22  1  0  0  0
 22 23  2  0  0  0
  5  6  2  0  0  0
 11 12  1  0  0  0
 12 13  1  0  0  0
 13  7  1  0  0  0
  6  1  1  0  0  0
 23 18  1  0  0  0
M  END
> <minimizedAffinity>
-8.85616

$$$$
OCNT-2308589


 24 27  0  0  0  0  0  0  0  0999 V2000
   -5.7268   27.7225    4.9369 C   0  0  0  0  0  0  0  0  0  0  0  0
   -4.4666   26.9376    4.6640 C   0  0  0  0  0  0  0  0  0  0  0  0
   -4.4292   25.9834    3.6297 C   0  0  0  0  0  0  0  0  0  0  0  0
   -5.8055   25.6624    2.6308 Cl  0  0  0  0  0  0  0  0  0  0  0  0
   -3.2668   25.2644    3.3598 C   0  0  0  0  0  0  0  0  0  0  0  0
   -2.1227   25.4995    4.1114 C   0  0  0  0  0  0  0  0  0  0  0  0
   -2.1380   26.4637    5.1285 C   0  0  0  0  0  0  0  0  0  0  0  0
   -0.9942   26.7215    5.8847 C   0  0  0  0  0  0  0  0  0  0  0  0
   -1.0299   27.6938    6.8786 C   0  0  0  0  0  0  0  0  0  0  0  0
   -2.2036   28.4042    7.1055 C   0  0  0  0  0  0  0  0  0  0  0  0
   -3.3144   28.1374    6.3843 N   0  0  0  0  0  0  0  0  0  0  0  0
   -3.3079   27.1993    5.4135 C   0  0  0  0  0  0  0  0  0  0  0  0
   -2.2513   29.3859    8.1095 N   0  0  0  0  0  0  0  0  0  0  0  0
   -0.9462   29.6954    8.7148 C   0  0  0  0  0  0  0  0  0  0  0  0
   -0.8779   31.1360    9.2287 C   0  0  0  0  0  0  0  0  0  0  0  0
   -2.1559   31.5320    9.9616 C   0  0  0  0  0  0  0  0  0  0  0  0
   -3.4125   31.3241    9.0885 C   0  0  0  0  0  0  0  0  0  0  0  0
   -3.1100   30.5346    7.7942 C   0  0  0  0  0  0  0  0  0  0  0  0
   -4.0913   32.6265    8.7756 C   0  0  0  0  0  0  0  0  0  0  0  0
   -4.3191   33.7632    9.5226 C   0  0  0  0  0  0  0  0  0  0  0  0
   -5.0003   34.6331    8.6564 C   0  0  0  0  0  0  0  0  0  0  0  0
   -5.1899   34.1019    7.4500 N   0  0  0  0  0  0  0  0  0  0  0  0
   -4.6274   32.8873    7.5444 N   0  0  0  0  0  0  0  0  0  0  0  0
   -4.6474   32.2861    6.7280 H   0  0  0  0  0  0  0  0  0  0  0  0
  1  2  1  0  0  0
  2  3  1  0  0  0
  3  4  1  0  0  0
  3  5  2  0  0  0
  5  6  1  0  0  0
  6  7  2  0  0  0
  7  8  1  0  0  0
  8  9  2  0  0  0
  9 10  1  0  0  0
 10 13  1  0  0  0
 13 14  1  0  0  0
 14 15  1  0  0  0
 15 16  1  0  0  0
 16 17  1  0  0  0
 17 19  1  0  0  0
 19 20  2  0  0  0
 20 21  1  0  0  0
 21 22  2  0  0  0
 22 23  1  0  0  0
 17 18  1  0  0  0
 10 11  2  0  0  0
 11 12  1  0  0  0
 12  2  2  0  0  0
 12  7  1  0  0  0
 18 13  1  0  0  0
 23 19  1  0  0  0
 23 24  1  0  0  0
M  END
> <minimizedAffinity>
-10.02928

$$$$
OCNT-2308599


 32 35  0  0  0  0  0  0  0  0999 V2000
   -5.2721   27.0621    5.3977 C   0  0  0  0  0  0  0  0  0  0  0  0
   -6.4716   26.3658    5.2378 C   0  0  0  0  0  0  0  0  0  0  0  0
   -6.4920   25.1637    4.5241 C   0  0  0  0  0  0  0  0  0  0  0  0
   -5.3119   24.6623    3.9630 C   0  0  0  0  0  0  0  0  0  0  0  0
   -4.1028   25.3380    4.1307 C   0  0  0  0  0  0  0  0  0  0  0  0
   -4.0903   26.5407    4.8345 C   0  0  0  0  0  0  0  0  0  0  0  0
   -5.3389   23.1066    3.0932 S   0  0  0  0  0  0  0  0  0  0  0  0
   -3.9794   22.6156    3.0502 O   0  0  0  0  0  0  0  0  0  0  0  0
   -6.4014   22.3127    3.6755 O   0  0  0  0  0  0  0  0  0  0  0  0
   -5.8184   23.5461    1.5232 N   0  0  0  0  0  0  0  0  0  0  0  0
   -5.9244   22.4824    0.5053 C   0  0  0  0  0  0  0  0  0  0  0  0
   -7.2567   22.5723   -0.2496 C   0  0  0  0  0  0  0  0  0  0  0  0
   -8.0063   23.9010   -0.1447 C   0  0  0  0  0  0  0  0  0  0  0  0
   -7.2636   25.1148   -0.6987 C   0  0  0  0  0  0  0  0  0  0  0  0
   -5.7675   25.1843   -0.4011 C   0  0  0  0  0  0  0  0  0  0  0  0
   -5.3758   24.8803    1.0449 C   0  0  0  0  0  0  0  0  0  0  0  0
   -6.2851   28.7585    6.7289 C   0  0  0  0  0  0  0  0  0  0  0  0
   -5.1279   28.2488    6.0748 O   0  0  0  0  0  0  0  0  0  0  0  0
   -2.8677   27.2611    5.0256 N   0  0  0  0  0  0  0  0  0  0  0  0
   -3.0025   28.2665    5.1569 H   0  0  0  0  0  0  0  0  0  0  0  0
   -1.7537   26.6724    6.1546 S   0  0  0  0  0  0  0  0  0  0  0  0
   -0.5510   26.3561    5.4131 O   0  0  0  0  0  0  0  0  0  0  0  0
   -2.4034   25.6818    6.9851 O   0  0  0  0  0  0  0  0  0  0  0  0
   -1.3992   28.0970    7.1600 C   0  0  0  0  0  0  0  0  0  0  0  0
   -0.0621   28.5292    7.2901 C   0  0  0  0  0  0  0  0  0  0  0  0
    0.2372   29.6483    8.0712 C   0  0  0  0  0  0  0  0  0  0  0  0
   -0.8101   30.2880    8.7011 C   0  0  0  0  0  0  0  0  0  0  0  0
   -0.7043   31.3879    9.4935 O   0  0  0  0  0  0  0  0  0  0  0  0
   -2.0817   31.5787    9.8816 C   0  0  0  0  0  0  0  0  0  0  0  0
   -2.9810   30.6200    9.2879 O   0  0  0  0  0  0  0  0  0  0  0  0
   -2.1103   29.8495    8.5837 C   0  0  0  0  0  0  0  0  0  0  0  0
   -2.4437   28.7495    7.8251 C   0  0  0  0  0  0  0  0  0  0  0  0
 17 18  1  0  0  0
 18  1  1  0  0  0
  1  2  1  0  0  0
  2  3  2  0  0  0
  3  4  1  0  0  0
  4  7  1  0  0  0
  7  8  2  0  0  0
  7  9  2  0  0  0
  7 10  1  0  0  0
 10 11  1  0  0  0
 11 12  1  0  0  0
 12 13  1  0  0  0
 13 14  1  0  0  0
 14 15  1  0  0  0
 15 16  1  0  0  0
  4  5  2  0  0  0
  5  6  1  0  0  0
  6 19  1  0  0  0
 19 21  1  0  0  0
 21 22  2  0  0  0
 21 23  2  0  0  0
 21 24  1  0  0  0
 24 25  1  0  0  0
 25 26  2  0  0  0
 26 27  1  0  0  0
 27 28  1  0  0  0
 28 29  1  0  0  0
 29 30  1  0  0  0
 30 31  1  0  0  0
 31 32  1  0  0  0
  6  1  2  0  0  0
 32 24  2  0  0  0
 16 10  1  0  0  0
 31 27  2  0  0  0
 19 20  1  0  0  0
M  END
> <minimizedAffinity>
-10.09075

$$$$
OCNT-2308603


 27 29  0  0  0  0  0  0  0  0999 V2000
   -3.7888   27.0258    4.2299 N   0  0  0  0  0  0  0  0  0  0  0  0
   -3.1082   27.2539    3.5074 H   0  0  0  0  0  0  0  0  0  0  0  0
   -4.8856   26.2155    3.6598 C   0  0  0  0  0  0  0  0  0  0  0  0
   -6.5095   26.3596    5.5369 O   0  0  0  0  0  0  0  0  0  0  0  0
   -5.7011   25.4891    4.7595 C   0  0  0  0  0  0  0  0  0  0  0  0
   -5.9935   27.1575    5.7477 H   0  0  0  0  0  0  0  0  0  0  0  0
   -4.2549   25.2131    2.6566 C   0  0  0  0  0  0  0  0  0  0  0  0
   -5.2551   24.5227    1.7548 C   0  0  0  0  0  0  0  0  0  0  0  0
   -5.4798   23.1417    1.8759 C   0  0  0  0  0  0  0  0  0  0  0  0
   -6.3995   22.5008    1.0452 C   0  0  0  0  0  0  0  0  0  0  0  0
   -7.0953   23.2384    0.0954 C   0  0  0  0  0  0  0  0  0  0  0  0
   -7.9758   22.6212   -0.7033 F   0  0  0  0  0  0  0  0  0  0  0  0
   -6.8900   24.6057   -0.0385 C   0  0  0  0  0  0  0  0  0  0  0  0
   -5.9721   25.2492    0.7927 C   0  0  0  0  0  0  0  0  0  0  0  0
   -3.1686   26.4384    5.4101 C   0  0  0  0  0  0  0  0  0  0  0  0
   -2.5132   27.5017    6.2699 C   0  0  0  0  0  0  0  0  0  0  0  0
   -1.1247   27.3243    6.4954 C   0  0  0  0  0  0  0  0  0  0  0  0
   -0.3936   28.1697    7.3296 C   0  0  0  0  0  0  0  0  0  0  0  0
   -1.0381   29.2109    7.9748 C   0  0  0  0  0  0  0  0  0  0  0  0
   -0.1497   30.2540    9.0145 Cl  0  0  0  0  0  0  0  0  0  0  0  0
   -2.4019   29.4147    7.7822 C   0  0  0  0  0  0  0  0  0  0  0  0
   -3.1586   28.5817    6.9217 C   0  0  0  0  0  0  0  0  0  0  0  0
   -4.5457   28.9074    6.8027 N   0  0  0  0  0  0  0  0  0  0  0  0
   -5.5748   28.8663    7.7122 C   0  0  0  0  0  0  0  0  0  0  0  0
   -6.6913   29.3174    7.1867 N   0  0  0  0  0  0  0  0  0  0  0  0
   -6.3301   29.5774    5.9052 C   0  0  0  0  0  0  0  0  0  0  0  0
   -5.0573   29.3238    5.6105 N   0  0  0  0  0  0  0  0  0  0  0  0
  4  5  1  0  0  0
  5  3  1  0  0  0
  3  7  1  0  0  0
  7  8  1  0  0  0
  8  9  1  0  0  0
  9 10  2  0  0  0
 10 11  1  0  0  0
 11 12  1  0  0  0
 11 13  2  0  0  0
 13 14  1  0  0  0
  3  1  1  0  0  0
  1 15  1  0  0  0
 15 16  1  0  0  0
 16 17  1  0  0  0
 17 18  2  0  0  0
 18 19  1  0  0  0
 19 20  1  0  0  0
 19 21  2  0  0  0
 21 22  1  0  0  0
 22 23  1  0  0  0
 23 24  1  0  0  0
 24 25  2  0  0  0
 25 26  1  0  0  0
 26 27  2  0  0  0
 14  8  2  0  0  0
 22 16  2  0  0  0
 27 23  1  0  0  0
  4  6  1  0  0  0
  1  2  1  0  0  0
M  END
> <minimizedAffinity>
-8.54316

$$$$
OCNT-2308609


 25 27  0  0  0  0  0  0  0  0999 V2000
   -4.3171   26.3378    3.0315 C   0  0  0  0  0  0  0  0  0  0  0  0
   -5.6031   26.8733    3.1053 C   0  0  0  0  0  0  0  0  0  0  0  0
   -6.0037   27.5798    4.2375 C   0  0  0  0  0  0  0  0  0  0  0  0
   -5.1264   27.7521    5.3089 C   0  0  0  0  0  0  0  0  0  0  0  0
   -5.7096   28.6768    6.6531 Cl  0  0  0  0  0  0  0  0  0  0  0  0
   -3.8235   27.2145    5.2728 C   0  0  0  0  0  0  0  0  0  0  0  0
   -3.4142   26.5154    4.1067 C   0  0  0  0  0  0  0  0  0  0  0  0
   -2.0364   25.8882    4.0023 C   0  0  0  0  0  0  0  0  0  0  0  0
   -1.0547   26.3101    5.0885 C   0  0  0  0  0  0  0  0  0  0  0  0
   -1.7561   26.3455    6.4361 C   0  0  0  0  0  0  0  0  0  0  0  0
   -2.8628   27.4154    6.4470 C   0  0  0  0  0  0  0  0  0  0  0  0
   -4.7753   24.8799    1.1923 C   0  0  0  0  0  0  0  0  0  0  0  0
   -3.8390   25.6197    1.9649 O   0  0  0  0  0  0  0  0  0  0  0  0
   -2.3319   28.7932    6.3871 N   0  0  0  0  0  0  0  0  0  0  0  0
   -3.1172   29.4311    6.2830 H   0  0  0  0  0  0  0  0  0  0  0  0
   -1.5397   29.1927    7.5558 C   0  0  0  0  0  0  0  0  0  0  0  0
   -2.1343   30.3082    8.3405 C   0  0  0  0  0  0  0  0  0  0  0  0
   -1.6118   30.9256    9.3786 N   0  0  0  0  0  0  0  0  0  0  0  0
   -2.5136   31.8677    9.8126 N   0  0  0  0  0  0  0  0  0  0  0  0
   -3.5733   31.8083    9.0345 C   0  0  0  0  0  0  0  0  0  0  0  0
   -3.3651   30.8484    8.0812 N   0  0  0  0  0  0  0  0  0  0  0  0
   -4.0102   30.5615    7.3607 H   0  0  0  0  0  0  0  0  0  0  0  0
   -4.8275   32.6125    9.1311 C   0  0  0  0  0  0  0  0  0  0  0  0
   -4.5842   34.0421    8.6493 C   0  0  0  0  0  0  0  0  0  0  0  0
   -5.9524   31.9564    8.3318 C   0  0  0  0  0  0  0  0  0  0  0  0
 12 13  1  0  0  0
 13  1  1  0  0  0
  1  2  1  0  0  0
  2  3  2  0  0  0
  3  4  1  0  0  0
  4  5  1  0  0  0
  4  6  2  0  0  0
  6  7  1  0  0  0
  7  8  1  0  0  0
  8  9  1  0  0  0
  9 10  1  0  0  0
 10 11  1  0  0  0
 11 14  1  0  0  0
 14 16  1  0  0  0
 16 17  1  0  0  0
 17 18  2  0  0  0
 18 19  1  0  0  0
 19 20  2  0  0  0
 20 23  1  0  0  0
 23 24  1  0  0  0
 23 25  1  0  0  0
 20 21  1  0  0  0
  7  1  2  0  0  0
 21 17  1  0  0  0
 11  6  1  0  0  0
 14 15  1  0  0  0
 21 22  1  0  0  0
M  END
> <minimizedAffinity>
-8.61082

$$$$
OCNT-2308610


 29 33  0  0  0  0  0  0  0  0999 V2000
   -2.4276   26.2229    6.5979 O   0  0  0  0  0  0  0  0  0  0  0  0
   -2.7454   27.3975    6.4115 C   0  0  0  0  0  0  0  0  0  0  0  0
   -2.1034   28.4161    7.0716 N   0  0  0  0  0  0  0  0  0  0  0  0
   -1.2925   28.2586    8.2969 C   0  0  0  0  0  0  0  0  0  0  0  0
   -1.1674   29.7866    8.2206 C   0  0  0  0  0  0  0  0  0  0  0  0
   -1.1045   30.8776    9.2651 C   0  0  0  0  0  0  0  0  0  0  0  0
   -1.7413   32.1510    8.6696 C   0  0  0  0  0  0  0  0  0  0  0  0
   -1.7920   32.1921    7.1258 C   0  0  0  0  0  0  0  0  0  0  0  0
   -2.2730   30.8940    6.4187 C   0  0  0  0  0  0  0  0  0  0  0  0
   -2.5208   29.7790    7.4443 C   0  0  0  0  0  0  0  0  0  0  0  0
   -3.9735   29.8707    8.1736 C   0  0  0  0  0  0  0  0  0  0  0  0
   -4.9617   30.8068    7.7855 C   0  0  0  0  0  0  0  0  0  0  0  0
   -6.2196   30.8864    8.3969 C   0  0  0  0  0  0  0  0  0  0  0  0
   -6.5466   30.0210    9.4296 C   0  0  0  0  0  0  0  0  0  0  0  0
   -5.6182   29.0772    9.8420 C   0  0  0  0  0  0  0  0  0  0  0  0
   -4.3641   29.0058    9.2214 C   0  0  0  0  0  0  0  0  0  0  0  0
   -3.8327   27.8078    5.4488 C   0  0  0  0  0  0  0  0  0  0  0  0
   -3.9647   26.9171    4.3118 N   0  0  0  0  0  0  0  0  0  0  0  0
   -5.0365   26.1651    3.9238 C   0  0  0  0  0  0  0  0  0  0  0  0
   -4.5640   25.4307    2.8582 C   0  0  0  0  0  0  0  0  0  0  0  0
   -3.2371   25.7216    2.6728 N   0  0  0  0  0  0  0  0  0  0  0  0
   -2.8741   26.6149    3.5820 N   0  0  0  0  0  0  0  0  0  0  0  0
   -5.2980   24.4858    2.0436 C   0  0  0  0  0  0  0  0  0  0  0  0
   -5.1656   23.1138    2.2691 C   0  0  0  0  0  0  0  0  0  0  0  0
   -5.8130   22.1490    1.5632 N   0  0  0  0  0  0  0  0  0  0  0  0
   -6.6346   22.5773    0.5787 C   0  0  0  0  0  0  0  0  0  0  0  0
   -6.8309   23.9134    0.2805 C   0  0  0  0  0  0  0  0  0  0  0  0
   -7.6643   24.2770   -0.7025 F   0  0  0  0  0  0  0  0  0  0  0  0
   -6.1588   24.8814    1.0159 C   0  0  0  0  0  0  0  0  0  0  0  0
  1  2  2  0  0  0
  2 17  1  0  0  0
 17 18  1  0  0  0
 18 19  1  0  0  0
 19 20  2  0  0  0
 20 23  1  0  0  0
 23 24  2  0  0  0
 24 25  1  0  0  0
 25 26  2  0  0  0
 26 27  1  0  0  0
 27 28  1  0  0  0
 27 29  2  0  0  0
 20 21  1  0  0  0
 21 22  2  0  0  0
  2  3  1  0  0  0
  3  4  1  0  0  0
  4  5  1  0  0  0
  5  6  1  0  0  0
  6  7  1  0  0  0
  7  8  1  0  0  0
  8  9  1  0  0  0
  9 10  1  0  0  0
 10 11  1  0  0  0
 11 12  2  0  0  0
 12 13  1  0  0  0
 13 14  2  0  0  0
 14 15  1  0  0  0
 15 16  2  0  0  0
 22 18  1  0  0  0
 10  3  1  0  0  0
 16 11  1  0  0  0
 29 23  1  0  0  0
 10  5  1  0  0  0
M  END
> <minimizedAffinity>
-10.21981

$$$$
OCNT-2308624


 24 26  0  0  0  0  0  0  0  0999 V2000
    0.3715   29.3188    6.3995 C   0  0  0  0  0  0  0  0  0  0  0  0
   -0.4398   28.8293    7.5031 N   0  0  0  0  0  0  0  0  0  0  0  0
   -1.5355   27.9691    7.3540 C   0  0  0  0  0  0  0  0  0  0  0  0
   -2.1254   27.5178    8.3429 O   0  0  0  0  0  0  0  0  0  0  0  0
   -1.9678   27.5635    5.8946 C   0  0  0  0  0  0  0  0  0  0  0  0
   -1.2991   26.2641    5.6535 N   0  0  0  0  0  0  0  0  0  0  0  0
   -1.2585   25.8741    4.2454 C   0  0  0  0  0  0  0  0  0  0  0  0
   -2.5956   25.9476    3.5175 C   0  0  0  0  0  0  0  0  0  0  0  0
   -3.6482   25.5071    4.3811 O   0  0  0  0  0  0  0  0  0  0  0  0
   -4.2169   26.5609    5.0513 C   0  0  0  0  0  0  0  0  0  0  0  0
   -5.6164   26.5842    5.0103 C   0  0  0  0  0  0  0  0  0  0  0  0
   -6.3205   27.6441    5.5729 C   0  0  0  0  0  0  0  0  0  0  0  0
   -5.6243   28.6853    6.1763 C   0  0  0  0  0  0  0  0  0  0  0  0
   -4.2293   28.6432    6.2484 C   0  0  0  0  0  0  0  0  0  0  0  0
   -3.4919   27.5573    5.7297 C   0  0  0  0  0  0  0  0  0  0  0  0
   -1.8378   25.5654    6.1764 H   0  0  0  0  0  0  0  0  0  0  0  0
   -0.1337   29.3513    8.8387 C   0  0  0  0  0  0  0  0  0  0  0  0
   -0.5115   30.8305    9.0268 C   0  0  0  0  0  0  0  0  0  0  0  0
   -1.9374   31.1868    8.6802 C   0  0  0  0  0  0  0  0  0  0  0  0
   -2.2546   31.8416    7.4854 C   0  0  0  0  0  0  0  0  0  0  0  0
   -3.5835   32.1343    7.2143 C   0  0  0  0  0  0  0  0  0  0  0  0
   -4.6086   31.8118    8.0338 N   0  0  0  0  0  0  0  0  0  0  0  0
   -4.2853   31.1666    9.1761 C   0  0  0  0  0  0  0  0  0  0  0  0
   -2.9864   30.8365    9.5379 C   0  0  0  0  0  0  0  0  0  0  0  0
  1  2  1  0  0  0
  2 17  1  0  0  0
 17 18  1  0  0  0
 18 19  1  0  0  0
 19 20  2  0  0  0
 20 21  1  0  0  0
 21 22  2  0  0  0
 22 23  1  0  0  0
 23 24  2  0  0  0
  2  3  1  0  0  0
  3  4  2  0  0  0
  3  5  1  0  0  0
  5  6  1  0  0  0
  6  7  1  0  0  0
  7  8  1  0  0  0
  8  9  1  0  0  0
  9 10  1  0  0  0
 10 11  2  0  0  0
 11 12  1  0  0  0
 12 13  2  0  0  0
 13 14  1  0  0  0
 14 15  2  0  0  0
 24 19  1  0  0  0
 15  5  1  0  0  0
 15 10  1  0  0  0
  6 16  1  0  0  0
M  END
> <minimizedAffinity>
-8.09639

$$$$
OCNT-2308630


 26 29  0  0  0  0  0  0  0  0999 V2000
   -5.6552   27.6000    3.8675 C   0  0  0  0  0  0  0  0  0  0  0  0
   -6.1961   28.2925    3.0009 O   0  0  0  0  0  0  0  0  0  0  0  0
   -5.1015   28.2139    4.9821 N   0  0  0  0  0  0  0  0  0  0  0  0
   -5.6234   29.4986    5.4491 C   0  0  0  0  0  0  0  0  0  0  0  0
   -5.2308   29.5889    6.9349 C   0  0  0  0  0  0  0  0  0  0  0  0
   -4.9784   31.0239    7.4004 C   0  0  0  0  0  0  0  0  0  0  0  0
   -5.3057   31.0489    8.8958 C   0  0  0  0  0  0  0  0  0  0  0  0
   -6.0187   29.7372    9.2158 C   0  0  0  0  0  0  0  0  0  0  0  0
   -6.3494   29.1080    7.8681 C   0  0  0  0  0  0  0  0  0  0  0  0
   -4.0260   28.6667    6.9482 C   0  0  0  0  0  0  0  0  0  0  0  0
   -3.0475   28.5452    7.9289 C   0  0  0  0  0  0  0  0  0  0  0  0
   -2.0044   27.6434    7.7303 C   0  0  0  0  0  0  0  0  0  0  0  0
   -1.9260   26.9033    6.5443 C   0  0  0  0  0  0  0  0  0  0  0  0
   -2.9034   27.0325    5.5486 C   0  0  0  0  0  0  0  0  0  0  0  0
   -2.5806   26.2594    4.0441 Cl  0  0  0  0  0  0  0  0  0  0  0  0
   -3.9852   27.8807    5.7792 C   0  0  0  0  0  0  0  0  0  0  0  0
   -5.7468   23.7721    3.1108 C   0  0  0  0  0  0  0  0  0  0  0  0
   -6.0611   23.9067    4.4496 C   0  0  0  0  0  0  0  0  0  0  0  0
   -6.0729   25.2663    4.8766 C   0  0  0  0  0  0  0  0  0  0  0  0
   -5.7387   26.1421    3.8590 C   0  0  0  0  0  0  0  0  0  0  0  0
   -5.4845   25.3007    2.3854 S   0  0  0  0  0  0  0  0  0  0  0  0
   -5.3779   21.3957    3.0790 N   0  0  0  0  0  0  0  0  0  0  0  0
   -5.6504   22.5287    2.3645 C   0  0  0  0  0  0  0  0  0  0  0  0
   -5.7990   22.4458    1.1476 O   0  0  0  0  0  0  0  0  0  0  0  0
   -5.3144   20.5206    2.5797 H   0  0  0  0  0  0  0  0  0  0  0  0
   -5.2569   21.4154    4.0818 H   0  0  0  0  0  0  0  0  0  0  0  0
 22 23  1  0  0  0
 23 24  2  0  0  0
 23 17  1  0  0  0
 17 18  2  0  0  0
 18 19  1  0  0  0
 19 20  2  0  0  0
 20  1  1  0  0  0
  1  2  2  0  0  0
  1  3  1  0  0  0
  3  4  1  0  0  0
  4  5  1  0  0  0
  5  6  1  0  0  0
  6  7  1  0  0  0
  7  8  1  0  0  0
  8  9  1  0  0  0
  5 10  1  0  0  0
 10 11  2  0  0  0
 11 12  1  0  0  0
 12 13  2  0  0  0
 13 14  1  0  0  0
 14 15  1  0  0  0
 14 16  2  0  0  0
 20 21  1  0  0  0
 21 17  1  0  0  0
 16  3  1  0  0  0
  9  5  1  0  0  0
 16 10  1  0  0  0
 22 25  1  0  0  0
 22 26  1  0  0  0
M  END
> <minimizedAffinity>
-8.91312

$$$$
