OCNT-2312240


 30 33  0  0  0  0  0  0  0  0999 V2000
   -3.1144   26.1527    4.3976 C   0  0  0  0  0  0  0  0  0  0  0  0
   -5.1215   26.0785    2.9473 C   0  0  0  0  0  0  0  0  0  0  0  0
   -6.0800   25.3619    3.9069 C   0  0  0  0  0  0  0  0  0  0  0  0
   -6.1369   26.2371    5.1508 C   0  0  0  0  0  0  0  0  0  0  0  0
   -5.1769   27.3828    4.8769 C   0  0  0  0  0  0  0  0  0  0  0  0
   -4.2507   26.9025    3.8356 N   0  0  0  0  0  0  0  0  0  0  0  0
   -3.5412   25.8190    1.0840 O   0  0  0  0  0  0  0  0  0  0  0  0
   -4.4572   25.1070    1.9249 C   0  0  0  0  0  0  0  0  0  0  0  0
   -3.4914   25.3417    0.2385 H   0  0  0  0  0  0  0  0  0  0  0  0
   -5.4665   24.3866    1.0474 C   0  0  0  0  0  0  0  0  0  0  0  0
   -6.2771   25.1096    0.1598 C   0  0  0  0  0  0  0  0  0  0  0  0
   -7.2037   24.4512   -0.6510 C   0  0  0  0  0  0  0  0  0  0  0  0
   -7.3318   23.0653   -0.5832 C   0  0  0  0  0  0  0  0  0  0  0  0
   -6.5349   22.3350    0.2955 C   0  0  0  0  0  0  0  0  0  0  0  0
   -5.6079   22.9906    1.1066 C   0  0  0  0  0  0  0  0  0  0  0  0
   -2.7508   26.6848    5.7446 C   0  0  0  0  0  0  0  0  0  0  0  0
   -2.4585   25.9992    6.9002 C   0  0  0  0  0  0  0  0  0  0  0  0
   -2.1748   26.9072    7.8731 O   0  0  0  0  0  0  0  0  0  0  0  0
   -2.3032   28.1240    7.2512 C   0  0  0  0  0  0  0  0  0  0  0  0
   -2.6591   28.0400    5.9863 N   0  0  0  0  0  0  0  0  0  0  0  0
   -2.0299   29.3111    8.0639 C   0  0  0  0  0  0  0  0  0  0  0  0
   -3.0976   29.9668    8.7113 C   0  0  0  0  0  0  0  0  0  0  0  0
   -2.8912   31.1120    9.4823 C   0  0  0  0  0  0  0  0  0  0  0  0
   -1.6106   31.6284    9.6223 C   0  0  0  0  0  0  0  0  0  0  0  0
   -0.5384   30.9964    8.9950 C   0  0  0  0  0  0  0  0  0  0  0  0
   -0.7260   29.8332    8.2153 C   0  0  0  0  0  0  0  0  0  0  0  0
    0.4862   29.1872    7.5771 C   0  0  0  0  0  0  0  0  0  0  0  0
    0.3954   27.8330    7.4699 F   0  0  0  0  0  0  0  0  0  0  0  0
    1.6270   29.3945    8.3077 F   0  0  0  0  0  0  0  0  0  0  0  0
    0.7786   29.6773    6.3419 F   0  0  0  0  0  0  0  0  0  0  0  0
  7  8  1  0  0  0
  8 10  1  0  0  0
 10 11  2  0  0  0
 11 12  1  0  0  0
 12 13  2  0  0  0
 13 14  1  0  0  0
 14 15  2  0  0  0
  8  2  1  0  0  0
  2  3  1  0  0  0
  3  4  1  0  0  0
  4  5  1  0  0  0
  5  6  1  0  0  0
  6  1  1  0  0  0
  1 16  1  0  0  0
 16 17  2  0  0  0
 17 18  1  0  0  0
 18 19  1  0  0  0
 19 21  1  0  0  0
 21 22  2  0  0  0
 22 23  1  0  0  0
 23 24  2  0  0  0
 24 25  1  0  0  0
 25 26  2  0  0  0
 26 27  1  0  0  0
 27 28  1  0  0  0
 27 29  1  0  0  0
 27 30  1  0  0  0
 19 20  2  0  0  0
 15 10  1  0  0  0
  6  2  1  0  0  0
 20 16  1  0  0  0
 26 21  1  0  0  0
  7  9  1  0  0  0
M  END
> <minimizedAffinity>
-11.01894

$$$$
OCNT-2312247


 26 28  0  0  0  0  0  0  0  0999 V2000
   -3.3130   29.3198    7.1721 C   0  0  0  0  0  0  0  0  0  0  0  0
   -4.1353   30.3118    6.9023 N   0  0  0  0  0  0  0  0  0  0  0  0
   -5.3040   29.7759    6.4158 N   0  0  0  0  0  0  0  0  0  0  0  0
   -5.1940   28.4665    6.3953 C   0  0  0  0  0  0  0  0  0  0  0  0
   -3.9496   28.1435    6.8672 N   0  0  0  0  0  0  0  0  0  0  0  0
   -3.5823   27.2125    6.9714 H   0  0  0  0  0  0  0  0  0  0  0  0
   -1.9289   29.4169    7.7288 C   0  0  0  0  0  0  0  0  0  0  0  0
   -1.1445   28.1136    7.7725 C   0  0  0  0  0  0  0  0  0  0  0  0
    0.2857   28.6083    7.7769 C   0  0  0  0  0  0  0  0  0  0  0  0
    0.3159   29.7249    6.8868 O   0  0  0  0  0  0  0  0  0  0  0  0
   -1.0235   30.2686    6.8177 C   0  0  0  0  0  0  0  0  0  0  0  0
   -1.9468   30.0372    9.0305 O   0  0  0  0  0  0  0  0  0  0  0  0
   -2.6534   32.1958    9.7402 C   0  0  0  0  0  0  0  0  0  0  0  0
   -1.5269   31.3947    9.1155 C   0  0  0  0  0  0  0  0  0  0  0  0
   -6.0389   27.4825    6.0166 N   0  0  0  0  0  0  0  0  0  0  0  0
   -6.8158   27.2256    6.6116 H   0  0  0  0  0  0  0  0  0  0  0  0
   -5.9844   26.7054    4.8390 C   0  0  0  0  0  0  0  0  0  0  0  0
   -6.2276   25.3246    4.9355 C   0  0  0  0  0  0  0  0  0  0  0  0
   -6.1919   24.4886    3.8094 C   0  0  0  0  0  0  0  0  0  0  0  0
   -5.9138   25.0183    2.5542 C   0  0  0  0  0  0  0  0  0  0  0  0
   -5.6643   26.3856    2.4456 C   0  0  0  0  0  0  0  0  0  0  0  0
   -5.7010   27.2189    3.5712 C   0  0  0  0  0  0  0  0  0  0  0  0
   -5.8401   24.3318    1.3770 O   0  0  0  0  0  0  0  0  0  0  0  0
   -6.8624   23.3853    1.0514 C   0  0  0  0  0  0  0  0  0  0  0  0
   -6.2355   22.0280    0.7463 C   0  0  0  0  0  0  0  0  0  0  0  0
   -7.5761   23.9201   -0.1885 C   0  0  0  0  0  0  0  0  0  0  0  0
 13 14  1  0  0  0
 14 12  1  0  0  0
 12  7  1  0  0  0
  7  1  1  0  0  0
  1  2  2  0  0  0
  2  3  1  0  0  0
  3  4  2  0  0  0
  4 15  1  0  0  0
 15 17  1  0  0  0
 17 18  1  0  0  0
 18 19  2  0  0  0
 19 20  1  0  0  0
 20 23  1  0  0  0
 23 24  1  0  0  0
 24 25  1  0  0  0
 24 26  1  0  0  0
 20 21  2  0  0  0
 21 22  1  0  0  0
  4  5  1  0  0  0
  7  8  1  0  0  0
  8  9  1  0  0  0
  9 10  1  0  0  0
 10 11  1  0  0  0
 11  7  1  0  0  0
  5  1  1  0  0  0
 22 17  2  0  0  0
 15 16  1  0  0  0
  5  6  1  0  0  0
M  END
> <minimizedAffinity>
-8.77092

$$$$
OCNT-2312258


 27 29  0  0  0  0  0  0  0  0999 V2000
   -5.7361   32.4755    7.6760 N   0  0  0  0  0  0  0  0  0  0  0  0
   -6.3833   31.3828    8.2231 C   0  0  0  0  0  0  0  0  0  0  0  0
   -6.3638   31.1073    9.4190 O   0  0  0  0  0  0  0  0  0  0  0  0
   -5.5929   32.4746    6.6739 H   0  0  0  0  0  0  0  0  0  0  0  0
   -4.8606   33.3163    8.4715 C   0  0  0  0  0  0  0  0  0  0  0  0
   -1.9077   30.2619    8.2347 C   0  0  0  0  0  0  0  0  0  0  0  0
   -1.9357   31.2568    7.0534 C   0  0  0  0  0  0  0  0  0  0  0  0
   -3.2364   32.0530    7.0168 C   0  0  0  0  0  0  0  0  0  0  0  0
   -3.3845   32.9385    8.2678 C   0  0  0  0  0  0  0  0  0  0  0  0
   -2.7832   32.2737    9.5256 C   0  0  0  0  0  0  0  0  0  0  0  0
   -2.7661   30.7512    9.4198 C   0  0  0  0  0  0  0  0  0  0  0  0
   -0.4620   29.9789    8.6903 C   0  0  0  0  0  0  0  0  0  0  0  0
    0.2860   29.0547    7.7552 C   0  0  0  0  0  0  0  0  0  0  0  0
    1.3242   29.3280    7.1708 O   0  0  0  0  0  0  0  0  0  0  0  0
   -0.5951   27.4596    6.2834 C   0  0  0  0  0  0  0  0  0  0  0  0
   -0.3972   27.8808    7.6332 O   0  0  0  0  0  0  0  0  0  0  0  0
   -7.1429   30.5487    7.2061 C   0  0  0  0  0  0  0  0  0  0  0  0
   -6.2614   29.5442    6.5064 C   0  0  0  0  0  0  0  0  0  0  0  0
   -5.1462   29.0099    7.1668 C   0  0  0  0  0  0  0  0  0  0  0  0
   -4.3217   28.0847    6.5257 C   0  0  0  0  0  0  0  0  0  0  0  0
   -4.5928   27.6949    5.2152 C   0  0  0  0  0  0  0  0  0  0  0  0
   -3.7327   26.7769    4.6722 O   0  0  0  0  0  0  0  0  0  0  0  0
   -3.8169   26.6496    3.2489 C   0  0  0  0  0  0  0  0  0  0  0  0
   -5.2549   26.5194    2.7725 C   0  0  0  0  0  0  0  0  0  0  0  0
   -6.0099   27.7909    3.1299 C   0  0  0  0  0  0  0  0  0  0  0  0
   -5.7079   28.2080    4.5413 C   0  0  0  0  0  0  0  0  0  0  0  0
   -6.5315   29.1423    5.1889 C   0  0  0  0  0  0  0  0  0  0  0  0
 15 16  1  0  0  0
 16 13  1  0  0  0
 13 14  2  0  0  0
 13 12  1  0  0  0
 12  6  1  0  0  0
  6  7  1  0  0  0
  7  8  1  0  0  0
  8  9  1  0  0  0
  9  5  1  0  0  0
  5  1  1  0  0  0
  1  2  1  0  0  0
  2  3  2  0  0  0
  2 17  1  0  0  0
 17 18  1  0  0  0
 18 19  1  0  0  0
 19 20  2  0  0  0
 20 21  1  0  0  0
 21 22  1  0  0  0
 22 23  1  0  0  0
 23 24  1  0  0  0
 24 25  1  0  0  0
 25 26  1  0  0  0
 26 27  1  0  0  0
  9 10  1  0  0  0
 10 11  1  0  0  0
 11  6  1  0  0  0
 27 18  2  0  0  0
 26 21  2  0  0  0
  1  4  1  0  0  0
M  END
> <minimizedAffinity>
-9.10760

$$$$
OCNT-2312272


 26 29  0  0  0  0  0  0  0  0999 V2000
   -2.9264   26.0700    4.9614 N   0  0  0  0  0  0  0  0  0  0  0  0
   -2.8704   26.3889    3.5287 C   0  0  0  0  0  0  0  0  0  0  0  0
   -3.7198   25.3823    2.7628 C   0  0  0  0  0  0  0  0  0  0  0  0
   -5.2028   25.5529    3.1343 C   0  0  0  0  0  0  0  0  0  0  0  0
   -5.3787   26.0451    4.5801 C   0  0  0  0  0  0  0  0  0  0  0  0
   -4.2282   25.6029    5.4793 C   0  0  0  0  0  0  0  0  0  0  0  0
   -4.1732   29.6904    8.6425 C   0  0  0  0  0  0  0  0  0  0  0  0
   -2.7858   29.4695    8.3216 N   0  0  0  0  0  0  0  0  0  0  0  0
   -1.8317   30.1794    8.9681 N   0  0  0  0  0  0  0  0  0  0  0  0
   -0.6937   29.7298    8.4290 C   0  0  0  0  0  0  0  0  0  0  0  0
   -0.9087   28.7376    7.4499 C   0  0  0  0  0  0  0  0  0  0  0  0
   -0.1395   27.9497    6.5907 C   0  0  0  0  0  0  0  0  0  0  0  0
   -0.8266   27.0583    5.7483 C   0  0  0  0  0  0  0  0  0  0  0  0
   -2.2356   26.9696    5.7940 C   0  0  0  0  0  0  0  0  0  0  0  0
   -2.9822   27.7502    6.6129 N   0  0  0  0  0  0  0  0  0  0  0  0
   -2.2842   28.5879    7.4014 C   0  0  0  0  0  0  0  0  0  0  0  0
   -0.0529   26.2847    4.8230 C   0  0  0  0  0  0  0  0  0  0  0  0
    0.5333   25.6509    4.0461 N   0  0  0  0  0  0  0  0  0  0  0  0
   -5.9044   24.2771    2.9387 N   0  0  0  0  0  0  0  0  0  0  0  0
   -5.4696   23.4874    3.4120 H   0  0  0  0  0  0  0  0  0  0  0  0
   -6.4398   23.9096    1.7014 C   0  0  0  0  0  0  0  0  0  0  0  0
   -6.5561   24.7702    0.6107 C   0  0  0  0  0  0  0  0  0  0  0  0
   -7.1685   24.3175   -0.5510 C   0  0  0  0  0  0  0  0  0  0  0  0
   -7.6908   23.0840   -0.6976 N   0  0  0  0  0  0  0  0  0  0  0  0
   -7.6114   22.2759    0.3771 C   0  0  0  0  0  0  0  0  0  0  0  0
   -7.0170   22.6423    1.5761 C   0  0  0  0  0  0  0  0  0  0  0  0
  7  8  1  0  0  0
  8  9  1  0  0  0
  9 10  2  0  0  0
 10 11  1  0  0  0
 11 12  1  0  0  0
 12 13  2  0  0  0
 13 17  1  0  0  0
 17 18  3  0  0  0
 13 14  1  0  0  0
 14  1  1  0  0  0
  1  2  1  0  0  0
  2  3  1  0  0  0
  3  4  1  0  0  0
  4 19  1  0  0  0
 19 21  1  0  0  0
 21 22  2  0  0  0
 22 23  1  0  0  0
 23 24  2  0  0  0
 24 25  1  0  0  0
 25 26  2  0  0  0
  4  5  1  0  0  0
  5  6  1  0  0  0
 14 15  2  0  0  0
 15 16  1  0  0  0
 16  8  1  0  0  0
 16 11  2  0  0  0
  6  1  1  0  0  0
 26 21  1  0  0  0
 19 20  1  0  0  0
M  END
> <minimizedAffinity>
-8.32270

$$$$
OCNT-2312280


 28 30  0  0  0  0  0  0  0  0999 V2000
   -4.2995   28.3990    6.1186 C   0  0  0  0  0  0  0  0  0  0  0  0
   -5.0919   29.0522    7.0705 C   0  0  0  0  0  0  0  0  0  0  0  0
   -6.4657   28.8196    7.1294 C   0  0  0  0  0  0  0  0  0  0  0  0
   -7.0597   27.9297    6.2397 C   0  0  0  0  0  0  0  0  0  0  0  0
   -6.2772   27.2480    5.3046 C   0  0  0  0  0  0  0  0  0  0  0  0
   -4.8875   27.4518    5.2515 C   0  0  0  0  0  0  0  0  0  0  0  0
   -4.0352   26.6851    4.2870 C   0  0  0  0  0  0  0  0  0  0  0  0
   -2.9229   26.2884    4.6316 O   0  0  0  0  0  0  0  0  0  0  0  0
   -4.5779   26.4033    3.0512 N   0  0  0  0  0  0  0  0  0  0  0  0
   -5.5759   26.4838    2.9170 H   0  0  0  0  0  0  0  0  0  0  0  0
   -3.9103   25.5249    2.1158 C   0  0  0  0  0  0  0  0  0  0  0  0
   -4.7198   24.2867    1.8665 C   0  0  0  0  0  0  0  0  0  0  0  0
   -4.5680   23.1437    2.6667 C   0  0  0  0  0  0  0  0  0  0  0  0
   -5.3327   21.9878    2.4307 C   0  0  0  0  0  0  0  0  0  0  0  0
   -6.2684   21.9523    1.3951 C   0  0  0  0  0  0  0  0  0  0  0  0
   -6.4329   23.0907    0.6271 C   0  0  0  0  0  0  0  0  0  0  0  0
   -5.6765   24.2304    0.8645 C   0  0  0  0  0  0  0  0  0  0  0  0
   -5.9719   25.2651    0.0092 O   0  0  0  0  0  0  0  0  0  0  0  0
   -7.1953   24.8375   -0.6357 C   0  0  0  0  0  0  0  0  0  0  0  0
   -7.3043   23.3158   -0.5469 C   0  0  0  0  0  0  0  0  0  0  0  0
   -2.8819   28.6958    6.0621 N   0  0  0  0  0  0  0  0  0  0  0  0
   -2.7609   29.7198    5.9730 H   0  0  0  0  0  0  0  0  0  0  0  0
   -1.9955   28.1906    7.4255 S   0  0  0  0  0  0  0  0  0  0  0  0
   -2.3796   26.8351    7.7579 O   0  0  0  0  0  0  0  0  0  0  0  0
   -2.0753   29.2427    8.4170 O   0  0  0  0  0  0  0  0  0  0  0  0
   -0.3259   28.1790    6.7844 C   0  0  0  0  0  0  0  0  0  0  0  0
    1.2501   29.1652    8.5360 C   0  0  0  0  0  0  0  0  0  0  0  0
    0.5491   29.3557    7.2005 C   0  0  0  0  0  0  0  0  0  0  0  0
 27 28  1  0  0  0
 28 26  1  0  0  0
 26 23  1  0  0  0
 23 24  2  0  0  0
 23 25  2  0  0  0
 23 21  1  0  0  0
 21  1  1  0  0  0
  1  2  2  0  0  0
  2  3  1  0  0  0
  3  4  2  0  0  0
  4  5  1  0  0  0
  5  6  2  0  0  0
  6  7  1  0  0  0
  7  8  2  0  0  0
  7  9  1  0  0  0
  9 11  1  0  0  0
 11 12  1  0  0  0
 12 13  1  0  0  0
 13 14  2  0  0  0
 14 15  1  0  0  0
 15 16  2  0  0  0
 16 17  1  0  0  0
 17 18  1  0  0  0
 18 19  1  0  0  0
 19 20  1  0  0  0
  6  1  1  0  0  0
 17 12  2  0  0  0
 20 16  1  0  0  0
 21 22  1  0  0  0
  9 10  1  0  0  0
M  END
> <minimizedAffinity>
-9.31241

$$$$
OCNT-2312281


 23 26  0  0  0  0  0  0  0  0999 V2000
   -5.3390   25.6840    3.2650 C   0  0  0  0  0  0  0  0  0  0  0  0
   -5.6946   27.1324    3.6140 C   0  0  0  0  0  0  0  0  0  0  0  0
   -5.2643   27.4786    5.0305 C   0  0  0  0  0  0  0  0  0  0  0  0
   -3.8064   27.3581    5.1699 N   0  0  0  0  0  0  0  0  0  0  0  0
   -3.1330   26.4128    4.2781 C   0  0  0  0  0  0  0  0  0  0  0  0
   -4.0434   25.2336    3.9486 C   0  0  0  0  0  0  0  0  0  0  0  0
   -3.1569   28.0496    6.1914 C   0  0  0  0  0  0  0  0  0  0  0  0
   -1.8432   27.9690    6.2597 N   0  0  0  0  0  0  0  0  0  0  0  0
   -1.2002   28.6521    7.2514 C   0  0  0  0  0  0  0  0  0  0  0  0
    0.1339   28.7666    7.5666 C   0  0  0  0  0  0  0  0  0  0  0  0
    0.1711   29.6054    8.6900 C   0  0  0  0  0  0  0  0  0  0  0  0
   -1.0408   30.0062    9.0772 N   0  0  0  0  0  0  0  0  0  0  0  0
   -1.8851   29.4191    8.1914 N   0  0  0  0  0  0  0  0  0  0  0  0
   -3.2663   29.5039    8.1488 C   0  0  0  0  0  0  0  0  0  0  0  0
   -3.9508   28.8554    7.1983 C   0  0  0  0  0  0  0  0  0  0  0  0
   -5.1978   25.6310    1.8382 O   0  0  0  0  0  0  0  0  0  0  0  0
   -5.9002   20.9977    0.7229 F   0  0  0  0  0  0  0  0  0  0  0  0
   -6.1606   22.2999    0.5442 C   0  0  0  0  0  0  0  0  0  0  0  0
   -7.0775   22.6834   -0.4275 C   0  0  0  0  0  0  0  0  0  0  0  0
   -7.3410   24.0363   -0.6181 C   0  0  0  0  0  0  0  0  0  0  0  0
   -6.6845   24.9859    0.1692 C   0  0  0  0  0  0  0  0  0  0  0  0
   -5.7678   24.5951    1.1527 C   0  0  0  0  0  0  0  0  0  0  0  0
   -5.5021   23.2398    1.3341 C   0  0  0  0  0  0  0  0  0  0  0  0
 17 18  1  0  0  0
 18 19  1  0  0  0
 19 20  2  0  0  0
 20 21  1  0  0  0
 21 22  2  0  0  0
 22 16  1  0  0  0
 16  1  1  0  0  0
  1  2  1  0  0  0
  2  3  1  0  0  0
  3  4  1  0  0  0
  4  7  1  0  0  0
  7  8  2  0  0  0
  8  9  1  0  0  0
  9 10  2  0  0  0
 10 11  1  0  0  0
 11 12  2  0  0  0
 12 13  1  0  0  0
 13 14  1  0  0  0
 14 15  2  0  0  0
  4  5  1  0  0  0
  5  6  1  0  0  0
 22 23  1  0  0  0
 23 18  2  0  0  0
  6  1  1  0  0  0
 15  7  1  0  0  0
 13  9  1  0  0  0
M  END
> <minimizedAffinity>
-9.65214

$$$$
OCNT-2312285


 24 27  0  0  0  0  0  0  0  0999 V2000
   -5.8126   29.8156    5.5821 N   0  0  0  0  0  0  0  0  0  0  0  0
   -6.4854   30.5049    5.9025 H   0  0  0  0  0  0  0  0  0  0  0  0
   -2.3597   29.9954    6.9993 C   0  0  0  0  0  0  0  0  0  0  0  0
   -2.7317   31.2009    6.6240 N   0  0  0  0  0  0  0  0  0  0  0  0
   -4.0110   31.2115    6.1066 N   0  0  0  0  0  0  0  0  0  0  0  0
   -4.5649   30.0178    6.0799 C   0  0  0  0  0  0  0  0  0  0  0  0
   -3.5548   28.7913    6.7475 S   0  0  0  0  0  0  0  0  0  0  0  0
    0.8053   29.6244    8.9466 C   0  0  0  0  0  0  0  0  0  0  0  0
   -0.4555   30.1544    8.8647 C   0  0  0  0  0  0  0  0  0  0  0  0
   -0.9465   29.6935    7.6201 C   0  0  0  0  0  0  0  0  0  0  0  0
   -0.0365   28.9334    6.9955 N   0  0  0  0  0  0  0  0  0  0  0  0
    1.0626   28.8944    7.8352 O   0  0  0  0  0  0  0  0  0  0  0  0
   -6.0261   29.3875    4.2028 C   0  0  0  0  0  0  0  0  0  0  0  0
   -5.9972   27.8809    4.0061 C   0  0  0  0  0  0  0  0  0  0  0  0
   -5.8190   27.3223    2.7406 C   0  0  0  0  0  0  0  0  0  0  0  0
   -5.7755   25.9382    2.6233 C   0  0  0  0  0  0  0  0  0  0  0  0
   -5.9612   25.1465    3.7478 C   0  0  0  0  0  0  0  0  0  0  0  0
   -6.1529   25.7764    4.9615 C   0  0  0  0  0  0  0  0  0  0  0  0
   -6.1695   27.1180    5.1161 N   0  0  0  0  0  0  0  0  0  0  0  0
   -5.5739   25.2641    1.4453 O   0  0  0  0  0  0  0  0  0  0  0  0
   -6.6087   24.3672    0.9848 C   0  0  0  0  0  0  0  0  0  0  0  0
   -7.0228   24.4610   -0.5094 C   0  0  0  0  0  0  0  0  0  0  0  0
   -7.1152   22.9250   -0.5151 C   0  0  0  0  0  0  0  0  0  0  0  0
   -6.1220   22.9301    0.6610 C   0  0  0  0  0  0  0  0  0  0  0  0
  8  9  2  0  0  0
  9 10  1  0  0  0
 10  3  1  0  0  0
  3  4  2  0  0  0
  4  5  1  0  0  0
  5  6  2  0  0  0
  6  1  1  0  0  0
  1 13  1  0  0  0
 13 14  1  0  0  0
 14 15  2  0  0  0
 15 16  1  0  0  0
 16 20  1  0  0  0
 20 21  1  0  0  0
 21 22  1  0  0  0
 22 23  1  0  0  0
 23 24  1  0  0  0
 16 17  2  0  0  0
 17 18  1  0  0  0
 18 19  2  0  0  0
  6  7  1  0  0  0
 10 11  2  0  0  0
 11 12  1  0  0  0
 12  8  1  0  0  0
  7  3  1  0  0  0
 19 14  1  0  0  0
 24 21  1  0  0  0
  1  2  1  0  0  0
M  END
> <minimizedAffinity>
-8.58800

$$$$
OCNT-2312286


 23 24  0  0  0  0  0  0  0  0999 V2000
   -5.6535   28.2005    5.9850 C   0  0  0  0  0  0  0  0  0  0  0  0
   -4.5093   28.7139    6.5564 C   0  0  0  0  0  0  0  0  0  0  0  0
   -4.9728   29.5202    7.5546 N   0  0  0  0  0  0  0  0  0  0  0  0
   -6.3153   29.5117    7.6096 N   0  0  0  0  0  0  0  0  0  0  0  0
   -6.7450   28.7078    6.6470 N   0  0  0  0  0  0  0  0  0  0  0  0
   -5.9201   25.5317    2.6490 C   0  0  0  0  0  0  0  0  0  0  0  0
   -5.7073   26.9007    2.4555 C   0  0  0  0  0  0  0  0  0  0  0  0
   -5.6224   27.7619    3.5566 C   0  0  0  0  0  0  0  0  0  0  0  0
   -5.7476   27.2763    4.8673 C   0  0  0  0  0  0  0  0  0  0  0  0
   -5.9610   25.9031    5.0521 C   0  0  0  0  0  0  0  0  0  0  0  0
   -6.0464   25.0386    3.9535 C   0  0  0  0  0  0  0  0  0  0  0  0
   -6.0191   24.5675    1.5193 C   0  0  0  0  0  0  0  0  0  0  0  0
   -6.3134   23.3911    1.6629 O   0  0  0  0  0  0  0  0  0  0  0  0
   -6.7878   25.0812   -0.6249 C   0  0  0  0  0  0  0  0  0  0  0  0
   -5.7400   25.1781    0.3409 O   0  0  0  0  0  0  0  0  0  0  0  0
   -4.2000   30.3274    8.4782 C   0  0  0  0  0  0  0  0  0  0  0  0
   -3.6052   31.5891    7.8110 C   0  0  0  0  0  0  0  0  0  0  0  0
   -4.5580   32.1828    6.8596 N   0  0  0  0  0  0  0  0  0  0  0  0
   -4.0822   32.8604    6.2646 H   0  0  0  0  0  0  0  0  0  0  0  0
   -4.8966   31.4510    6.2236 H   0  0  0  0  0  0  0  0  0  0  0  0
   -3.1560   32.6305    8.8733 C   0  0  0  0  0  0  0  0  0  0  0  0
   -4.3314   33.4723    9.3843 C   0  0  0  0  0  0  0  0  0  0  0  0
   -2.4104   32.0100   10.0602 C   0  0  0  0  0  0  0  0  0  0  0  0
 14 15  1  0  0  0
 15 12  1  0  0  0
 12 13  2  0  0  0
 12  6  1  0  0  0
  6  7  1  0  0  0
  7  8  2  0  0  0
  8  9  1  0  0  0
  9  1  1  0  0  0
  1  2  2  0  0  0
  2  3  1  0  0  0
  3 16  1  0  0  0
 16 17  1  0  0  0
 17 18  1  0  0  0
 17 21  1  0  0  0
 21 22  1  0  0  0
 21 23  1  0  0  0
  3  4  1  0  0  0
  4  5  2  0  0  0
  9 10  2  0  0  0
 10 11  1  0  0  0
 11  6  2  0  0  0
  5  1  1  0  0  0
 18 19  1  0  0  0
 18 20  1  0  0  0
M  END
> <minimizedAffinity>
-7.89128

$$$$
OCNT-2312293


 28 31  0  0  0  0  0  0  0  0999 V2000
   -5.9825   29.6887    5.0966 O   0  0  0  0  0  0  0  0  0  0  0  0
   -5.7482   28.5502    5.5129 C   0  0  0  0  0  0  0  0  0  0  0  0
   -5.3698   28.2611    6.8095 N   0  0  0  0  0  0  0  0  0  0  0  0
   -5.1906   27.2934    7.0774 H   0  0  0  0  0  0  0  0  0  0  0  0
   -5.1969   29.1759    7.8349 C   0  0  0  0  0  0  0  0  0  0  0  0
   -6.1340   29.9231    8.5022 C   0  0  0  0  0  0  0  0  0  0  0  0
   -5.4484   30.6628    9.4199 N   0  0  0  0  0  0  0  0  0  0  0  0
   -4.1193   30.4556    9.4021 N   0  0  0  0  0  0  0  0  0  0  0  0
   -3.9583   29.5430    8.4323 C   0  0  0  0  0  0  0  0  0  0  0  0
   -5.8236   31.3276   10.0887 H   0  0  0  0  0  0  0  0  0  0  0  0
   -2.5613   28.9397    7.9978 C   0  0  0  0  0  0  0  0  0  0  0  0
   -2.4919   27.7902    7.3459 N   0  0  0  0  0  0  0  0  0  0  0  0
   -1.1686   27.4847    7.0939 C   0  0  0  0  0  0  0  0  0  0  0  0
   -0.2479   28.4034    7.5491 C   0  0  0  0  0  0  0  0  0  0  0  0
   -1.0583   29.7001    8.3248 S   0  0  0  0  0  0  0  0  0  0  0  0
   -5.8512   27.3080    4.5931 C   0  0  0  0  0  0  0  0  0  0  0  0
   -4.6750   26.3093    4.5256 C   0  0  0  0  0  0  0  0  0  0  0  0
   -4.9749   26.1072    2.9958 C   0  0  0  0  0  0  0  0  0  0  0  0
   -3.7733   26.1475    2.1859 O   0  0  0  0  0  0  0  0  0  0  0  0
   -5.6944   27.4986    3.0687 C   0  0  0  0  0  0  0  0  0  0  0  0
   -4.0912   26.0470    1.2716 H   0  0  0  0  0  0  0  0  0  0  0  0
   -5.8483   24.8016    2.6341 C   0  0  0  0  0  0  0  0  0  0  0  0
   -6.3128   23.8796    3.5948 C   0  0  0  0  0  0  0  0  0  0  0  0
   -7.0802   22.7618    3.2461 C   0  0  0  0  0  0  0  0  0  0  0  0
   -7.4183   22.5349    1.9162 C   0  0  0  0  0  0  0  0  0  0  0  0
   -6.9919   23.4303    0.9441 C   0  0  0  0  0  0  0  0  0  0  0  0
   -7.4130   23.1699   -0.7035 Cl  0  0  0  0  0  0  0  0  0  0  0  0
   -6.2259   24.5434    1.2971 C   0  0  0  0  0  0  0  0  0  0  0  0
  1  2  2  0  0  0
  2  3  1  0  0  0
  3  5  1  0  0  0
  5  6  2  0  0  0
  6  7  1  0  0  0
  7  8  1  0  0  0
  8  9  2  0  0  0
  9 11  1  0  0  0
 11 12  2  0  0  0
 12 13  1  0  0  0
 13 14  2  0  0  0
 14 15  1  0  0  0
  2 16  1  0  0  0
 16 17  1  0  0  0
 17 18  1  0  0  0
 18 19  1  0  0  0
 18 22  1  0  0  0
 22 23  2  0  0  0
 23 24  1  0  0  0
 24 25  2  0  0  0
 25 26  1  0  0  0
 26 27  1  0  0  0
 26 28  2  0  0  0
 18 20  1  0  0  0
  9  5  1  0  0  0
 15 11  1  0  0  0
 20 16  1  0  0  0
 28 22  1  0  0  0
  3  4  1  0  0  0
  7 10  1  0  0  0
 19 21  1  0  0  0
M  END
> <minimizedAffinity>
-9.41303

$$$$
OCNT-2312302


 39 43  0  0  0  0  0  0  0  0999 V2000
   -6.0289   24.8849    0.7198 C   0  0  0  0  0  0  0  0  0  0  0  0
   -7.2713   22.1615    3.1091 C   0  0  0  0  0  0  0  0  0  0  0  0
   -6.7500   21.0221    2.4966 C   0  0  0  0  0  0  0  0  0  0  0  0
   -6.0148   21.1281    1.3126 C   0  0  0  0  0  0  0  0  0  0  0  0
   -5.7902   22.3746    0.7327 C   0  0  0  0  0  0  0  0  0  0  0  0
   -6.2952   23.5340    1.3347 C   0  0  0  0  0  0  0  0  0  0  0  0
   -7.0339   23.4149    2.5240 C   0  0  0  0  0  0  0  0  0  0  0  0
   -6.4046   22.1808    5.9657 O   0  0  0  0  0  0  0  0  0  0  0  0
   -7.5704   22.1579    5.5944 C   0  0  0  0  0  0  0  0  0  0  0  0
   -8.6260   22.1213    6.4842 N   0  0  0  0  0  0  0  0  0  0  0  0
   -8.0312   22.1378    4.2964 N   0  0  0  0  0  0  0  0  0  0  0  0
   -9.4789   22.5660    6.1789 H   0  0  0  0  0  0  0  0  0  0  0  0
   -9.0206   21.9711    4.1931 H   0  0  0  0  0  0  0  0  0  0  0  0
   -8.3615   22.1646    7.9056 C   0  0  0  0  0  0  0  0  0  0  0  0
   -9.4279   22.9588    8.6091 C   0  0  0  0  0  0  0  0  0  0  0  0
  -10.3443   23.7120    7.8704 C   0  0  0  0  0  0  0  0  0  0  0  0
  -11.2930   24.4589    8.5512 C   0  0  0  0  0  0  0  0  0  0  0  0
  -11.3837   24.5108    9.8983 N   0  0  0  0  0  0  0  0  0  0  0  0
  -10.4885   23.7781   10.5933 C   0  0  0  0  0  0  0  0  0  0  0  0
   -9.5037   22.9995   10.0053 C   0  0  0  0  0  0  0  0  0  0  0  0
   -6.0304   25.9178    1.7334 N   0  0  0  0  0  0  0  0  0  0  0  0
   -4.8705   26.2796    2.3856 C   0  0  0  0  0  0  0  0  0  0  0  0
   -3.7598   25.8534    2.0900 O   0  0  0  0  0  0  0  0  0  0  0  0
   -6.9130   26.0991    2.1871 H   0  0  0  0  0  0  0  0  0  0  0  0
   -5.0286   27.2015    3.5455 C   0  0  0  0  0  0  0  0  0  0  0  0
   -5.8803   28.3029    3.4087 C   0  0  0  0  0  0  0  0  0  0  0  0
   -6.0438   29.2091    4.4626 C   0  0  0  0  0  0  0  0  0  0  0  0
   -5.3597   29.0202    5.6693 C   0  0  0  0  0  0  0  0  0  0  0  0
   -4.5410   27.8888    5.8209 C   0  0  0  0  0  0  0  0  0  0  0  0
   -4.3749   26.9854    4.7626 C   0  0  0  0  0  0  0  0  0  0  0  0
   -5.5121   29.9392    6.7473 N   0  0  0  0  0  0  0  0  0  0  0  0
   -6.6730   30.1311    7.4669 C   0  0  0  0  0  0  0  0  0  0  0  0
   -6.5708   31.0789    8.3665 N   0  0  0  0  0  0  0  0  0  0  0  0
   -5.2775   31.5097    8.2738 C   0  0  0  0  0  0  0  0  0  0  0  0
   -4.6304   32.4976    9.0319 C   0  0  0  0  0  0  0  0  0  0  0  0
   -3.2736   32.7450    8.8114 C   0  0  0  0  0  0  0  0  0  0  0  0
   -2.5676   32.0105    7.8647 C   0  0  0  0  0  0  0  0  0  0  0  0
   -3.1972   31.0252    7.0954 C   0  0  0  0  0  0  0  0  0  0  0  0
   -4.5728   30.8098    7.2930 C   0  0  0  0  0  0  0  0  0  0  0  0
  8  9  2  0  0  0
  9 10  1  0  0  0
 10 14  1  0  0  0
 14 15  1  0  0  0
 15 16  2  0  0  0
 16 17  1  0  0  0
 17 18  2  0  0  0
 18 19  1  0  0  0
 19 20  2  0  0  0
  9 11  1  0  0  0
 11  2  1  0  0  0
  2  3  1  0  0  0
  3  4  2  0  0  0
  4  5  1  0  0  0
  5  6  2  0  0  0
  6  1  1  0  0  0
  1 21  1  0  0  0
 21 22  1  0  0  0
 22 23  2  0  0  0
 22 25  1  0  0  0
 25 26  1  0  0  0
 26 27  2  0  0  0
 27 28  1  0  0  0
 28 31  1  0  0  0
 31 32  1  0  0  0
 32 33  2  0  0  0
 33 34  1  0  0  0
 34 35  2  0  0  0
 35 36  1  0  0  0
 36 37  2  0  0  0
 37 38  1  0  0  0
 38 39  2  0  0  0
 28 29  2  0  0  0
 29 30  1  0  0  0
  6  7  1  0  0  0
 20 15  1  0  0  0
  7  2  2  0  0  0
 30 25  2  0  0  0
 39 31  1  0  0  0
 39 34  1  0  0  0
 10 12  1  0  0  0
 11 13  1  0  0  0
 21 24  1  0  0  0
M  END
> <minimizedAffinity>
-11.08683

$$$$
OCNT-2312303


 25 27  0  0  0  0  0  0  0  0999 V2000
   -5.9247   27.4604    6.1778 N   0  0  0  0  0  0  0  0  0  0  0  0
   -5.9848   26.8934    7.0203 H   0  0  0  0  0  0  0  0  0  0  0  0
   -5.9953   25.1452    0.0871 C   0  0  0  0  0  0  0  0  0  0  0  0
   -5.9243   24.4594    1.3685 N   0  0  0  0  0  0  0  0  0  0  0  0
   -5.8905   23.0659    1.3710 C   0  0  0  0  0  0  0  0  0  0  0  0
   -5.9794   22.3780    0.3529 O   0  0  0  0  0  0  0  0  0  0  0  0
   -5.6211   22.4086    2.7040 C   0  0  0  0  0  0  0  0  0  0  0  0
   -6.3779   23.0957    3.8178 C   0  0  0  0  0  0  0  0  0  0  0  0
   -6.0831   24.5676    3.8022 C   0  0  0  0  0  0  0  0  0  0  0  0
   -6.0904   25.2987    5.0051 C   0  0  0  0  0  0  0  0  0  0  0  0
   -5.8674   26.6781    5.0223 C   0  0  0  0  0  0  0  0  0  0  0  0
   -5.7242   27.3205    3.7877 C   0  0  0  0  0  0  0  0  0  0  0  0
   -5.7313   26.6066    2.5822 C   0  0  0  0  0  0  0  0  0  0  0  0
   -5.8987   25.2195    2.5758 C   0  0  0  0  0  0  0  0  0  0  0  0
   -6.8152   28.6119    6.2279 C   0  0  0  0  0  0  0  0  0  0  0  0
   -6.0431   29.8128    6.7240 C   0  0  0  0  0  0  0  0  0  0  0  0
   -4.8045   30.1422    6.1554 C   0  0  0  0  0  0  0  0  0  0  0  0
   -4.0762   31.2462    6.6116 C   0  0  0  0  0  0  0  0  0  0  0  0
   -4.5727   32.0293    7.6536 C   0  0  0  0  0  0  0  0  0  0  0  0
   -5.8091   31.7078    8.2195 C   0  0  0  0  0  0  0  0  0  0  0  0
   -6.5378   30.6054    7.7660 C   0  0  0  0  0  0  0  0  0  0  0  0
   -3.9678   33.1306    8.1909 O   0  0  0  0  0  0  0  0  0  0  0  0
   -4.8257   34.1171    8.7379 C   0  0  0  0  0  0  0  0  0  0  0  0
   -4.5654   34.2518   10.0617 F   0  0  0  0  0  0  0  0  0  0  0  0
   -4.5022   35.3009    8.1576 F   0  0  0  0  0  0  0  0  0  0  0  0
  3  4  1  0  0  0
  4  5  1  0  0  0
  5  6  2  0  0  0
  5  7  1  0  0  0
  7  8  1  0  0  0
  8  9  1  0  0  0
  9 10  1  0  0  0
 10 11  2  0  0  0
 11  1  1  0  0  0
  1 15  1  0  0  0
 15 16  1  0  0  0
 16 17  1  0  0  0
 17 18  2  0  0  0
 18 19  1  0  0  0
 19 22  1  0  0  0
 22 23  1  0  0  0
 23 24  1  0  0  0
 23 25  1  0  0  0
 19 20  2  0  0  0
 20 21  1  0  0  0
 11 12  1  0  0  0
 12 13  2  0  0  0
 13 14  1  0  0  0
 14  4  1  0  0  0
 14  9  2  0  0  0
 21 16  2  0  0  0
  1  2  1  0  0  0
M  END
> <minimizedAffinity>
-9.41345

$$$$
OCNT-2312312


 29 32  0  0  0  0  0  0  0  0999 V2000
   -5.8481   24.5686    3.2320 C   0  0  0  0  0  0  0  0  0  0  0  0
   -5.9106   26.1166    3.1801 C   0  0  0  0  0  0  0  0  0  0  0  0
   -4.4631   26.5587    3.0497 C   0  0  0  0  0  0  0  0  0  0  0  0
   -3.7947   25.6233    3.9541 N   0  0  0  0  0  0  0  0  0  0  0  0
   -4.3669   24.3031    3.6270 C   0  0  0  0  0  0  0  0  0  0  0  0
   -6.1451   23.8166    1.9188 C   0  0  0  0  0  0  0  0  0  0  0  0
   -6.8399   24.4879    0.8905 C   0  0  0  0  0  0  0  0  0  0  0  0
   -7.1387   23.8558   -0.3186 C   0  0  0  0  0  0  0  0  0  0  0  0
   -6.7577   22.5336   -0.5239 C   0  0  0  0  0  0  0  0  0  0  0  0
   -6.0849   21.8456    0.4816 C   0  0  0  0  0  0  0  0  0  0  0  0
   -5.7886   22.4770    1.6961 C   0  0  0  0  0  0  0  0  0  0  0  0
   -6.5399   24.5311    5.6035 N   0  0  0  0  0  0  0  0  0  0  0  0
   -6.8248   24.0949    4.3330 C   0  0  0  0  0  0  0  0  0  0  0  0
   -7.8229   23.4058    4.1439 O   0  0  0  0  0  0  0  0  0  0  0  0
   -7.2630   24.3424    6.2850 H   0  0  0  0  0  0  0  0  0  0  0  0
   -6.0270   25.3975    5.7205 H   0  0  0  0  0  0  0  0  0  0  0  0
   -2.3334   25.6343    3.8227 C   0  0  0  0  0  0  0  0  0  0  0  0
   -1.7226   26.4438    4.9166 C   0  0  0  0  0  0  0  0  0  0  0  0
   -0.4267   26.4327    5.3803 C   0  0  0  0  0  0  0  0  0  0  0  0
   -0.3263   27.3402    6.3885 O   0  0  0  0  0  0  0  0  0  0  0  0
   -1.5856   27.8735    6.4912 C   0  0  0  0  0  0  0  0  0  0  0  0
   -2.4556   27.3681    5.6356 N   0  0  0  0  0  0  0  0  0  0  0  0
   -1.7811   28.9093    7.5035 C   0  0  0  0  0  0  0  0  0  0  0  0
   -0.6737   29.6291    7.9829 C   0  0  0  0  0  0  0  0  0  0  0  0
   -0.8302   30.6235    8.9539 C   0  0  0  0  0  0  0  0  0  0  0  0
   -2.0978   30.9069    9.4549 C   0  0  0  0  0  0  0  0  0  0  0  0
   -2.2933   32.1298   10.6487 Cl  0  0  0  0  0  0  0  0  0  0  0  0
   -3.2095   30.2026    8.9955 C   0  0  0  0  0  0  0  0  0  0  0  0
   -3.0511   29.2091    8.0233 C   0  0  0  0  0  0  0  0  0  0  0  0
 12 13  1  0  0  0
 13 14  2  0  0  0
 13  1  1  0  0  0
  1  6  1  0  0  0
  6  7  2  0  0  0
  7  8  1  0  0  0
  8  9  2  0  0  0
  9 10  1  0  0  0
 10 11  2  0  0  0
  1  2  1  0  0  0
  2  3  1  0  0  0
  3  4  1  0  0  0
  4 17  1  0  0  0
 17 18  1  0  0  0
 18 19  2  0  0  0
 19 20  1  0  0  0
 20 21  1  0  0  0
 21 23  1  0  0  0
 23 24  1  0  0  0
 24 25  2  0  0  0
 25 26  1  0  0  0
 26 27  1  0  0  0
 26 28  2  0  0  0
 28 29  1  0  0  0
 21 22  2  0  0  0
  4  5  1  0  0  0
  5  1  1  0  0  0
 11  6  1  0  0  0
 22 18  1  0  0  0
 29 23  2  0  0  0
 12 15  1  0  0  0
 12 16  1  0  0  0
M  END
> <minimizedAffinity>
-9.96010

$$$$
OCNT-2312315


 24 27  0  0  0  0  0  0  0  0999 V2000
   -2.3777   25.8534    7.1303 O   0  0  0  0  0  0  0  0  0  0  0  0
   -1.7414   26.7989    6.2348 S   0  0  0  0  0  0  0  0  0  0  0  0
   -0.7402   26.3956    5.2716 O   0  0  0  0  0  0  0  0  0  0  0  0
   -1.1460   28.1336    7.2363 C   0  0  0  0  0  0  0  0  0  0  0  0
    0.2345   28.3910    7.3069 C   0  0  0  0  0  0  0  0  0  0  0  0
    0.7064   29.4219    8.1086 C   0  0  0  0  0  0  0  0  0  0  0  0
   -0.1980   30.1953    8.8267 C   0  0  0  0  0  0  0  0  0  0  0  0
   -1.5789   29.9491    8.7383 C   0  0  0  0  0  0  0  0  0  0  0  0
   -2.4851   30.7447    9.4531 C   0  0  0  0  0  0  0  0  0  0  0  0
   -3.8486   30.5077    9.3546 C   0  0  0  0  0  0  0  0  0  0  0  0
   -4.2615   29.4787    8.5375 C   0  0  0  0  0  0  0  0  0  0  0  0
   -3.4143   28.6948    7.8371 N   0  0  0  0  0  0  0  0  0  0  0  0
   -2.0829   28.9046    7.9279 C   0  0  0  0  0  0  0  0  0  0  0  0
   -3.0232   27.4635    5.3616 N   0  0  0  0  0  0  0  0  0  0  0  0
   -3.4316   28.2588    5.8504 H   0  0  0  0  0  0  0  0  0  0  0  0
   -3.8212   26.7460    4.4203 C   0  0  0  0  0  0  0  0  0  0  0  0
   -4.9425   27.4208    3.9138 C   0  0  0  0  0  0  0  0  0  0  0  0
   -5.7634   26.8595    2.9266 C   0  0  0  0  0  0  0  0  0  0  0  0
   -5.3944   25.6032    2.4605 C   0  0  0  0  0  0  0  0  0  0  0  0
   -6.0507   24.8871    1.5070 O   0  0  0  0  0  0  0  0  0  0  0  0
   -5.3662   23.7244    1.3456 C   0  0  0  0  0  0  0  0  0  0  0  0
   -4.2735   23.6852    2.1811 C   0  0  0  0  0  0  0  0  0  0  0  0
   -4.2830   24.9034    2.9113 C   0  0  0  0  0  0  0  0  0  0  0  0
   -3.4703   25.4899    3.9018 C   0  0  0  0  0  0  0  0  0  0  0  0
  1  2  2  0  0  0
  2  3  2  0  0  0
  2 14  1  0  0  0
 14 16  1  0  0  0
 16 17  2  0  0  0
 17 18  1  0  0  0
 18 19  2  0  0  0
 19 20  1  0  0  0
 20 21  1  0  0  0
 21 22  2  0  0  0
 22 23  1  0  0  0
 23 24  2  0  0  0
  2  4  1  0  0  0
  4  5  1  0  0  0
  5  6  2  0  0  0
  6  7  1  0  0  0
  7  8  2  0  0  0
  8  9  1  0  0  0
  9 10  2  0  0  0
 10 11  1  0  0  0
 11 12  2  0  0  0
 12 13  1  0  0  0
 24 16  1  0  0  0
 13  4  2  0  0  0
 23 19  1  0  0  0
 13  8  1  0  0  0
 14 15  1  0  0  0
M  END
> <minimizedAffinity>
-9.48118

$$$$
OCNT-2312337


 26 28  0  0  0  0  0  0  0  0999 V2000
   -1.3693   27.3876    7.4464 O   0  0  0  0  0  0  0  0  0  0  0  0
   -0.4820   27.8809    6.7506 C   0  0  0  0  0  0  0  0  0  0  0  0
   -0.1259   27.3544    5.5121 N   0  0  0  0  0  0  0  0  0  0  0  0
    0.7792   27.6462    5.1533 H   0  0  0  0  0  0  0  0  0  0  0  0
    0.3325   29.1430    7.1643 C   0  0  0  0  0  0  0  0  0  0  0  0
    1.0760   29.5756    6.0876 F   0  0  0  0  0  0  0  0  0  0  0  0
    1.2740   28.8071    8.1018 F   0  0  0  0  0  0  0  0  0  0  0  0
   -0.5887   30.2257    7.6678 C   0  0  0  0  0  0  0  0  0  0  0  0
   -1.4738   30.8535    6.7987 C   0  0  0  0  0  0  0  0  0  0  0  0
   -2.3277   31.8350    7.1698 N   0  0  0  0  0  0  0  0  0  0  0  0
   -2.2992   32.2139    8.4649 C   0  0  0  0  0  0  0  0  0  0  0  0
   -1.4547   31.6557    9.4092 C   0  0  0  0  0  0  0  0  0  0  0  0
   -0.5865   30.6466    9.0024 C   0  0  0  0  0  0  0  0  0  0  0  0
   -0.6745   26.0886    5.0557 C   0  0  0  0  0  0  0  0  0  0  0  0
   -1.6712   26.2800    3.9127 C   0  0  0  0  0  0  0  0  0  0  0  0
   -3.0151   25.7053    4.2251 C   0  0  0  0  0  0  0  0  0  0  0  0
   -3.5768   25.5773    5.4808 C   0  0  0  0  0  0  0  0  0  0  0  0
   -4.8107   25.0020    5.3447 N   0  0  0  0  0  0  0  0  0  0  0  0
   -5.0744   24.7491    4.0184 C   0  0  0  0  0  0  0  0  0  0  0  0
   -6.1957   24.1769    3.4067 C   0  0  0  0  0  0  0  0  0  0  0  0
   -7.5469   23.6569    4.3322 Cl  0  0  0  0  0  0  0  0  0  0  0  0
   -6.1935   24.0364    2.0174 C   0  0  0  0  0  0  0  0  0  0  0  0
   -5.0996   24.4571    1.2644 C   0  0  0  0  0  0  0  0  0  0  0  0
   -3.9826   25.0290    1.8867 C   0  0  0  0  0  0  0  0  0  0  0  0
   -3.9648   25.1804    3.2897 C   0  0  0  0  0  0  0  0  0  0  0  0
   -5.4475   24.7857    6.1004 H   0  0  0  0  0  0  0  0  0  0  0  0
  1  2  2  0  0  0
  2  3  1  0  0  0
  3 14  1  0  0  0
 14 15  1  0  0  0
 15 16  1  0  0  0
 16 17  2  0  0  0
 17 18  1  0  0  0
 18 19  1  0  0  0
 19 20  2  0  0  0
 20 21  1  0  0  0
 20 22  1  0  0  0
 22 23  2  0  0  0
 23 24  1  0  0  0
 24 25  2  0  0  0
  2  5  1  0  0  0
  5  6  1  0  0  0
  5  7  1  0  0  0
  5  8  1  0  0  0
  8  9  2  0  0  0
  9 10  1  0  0  0
 10 11  2  0  0  0
 11 12  1  0  0  0
 12 13  2  0  0  0
 25 16  1  0  0  0
 13  8  1  0  0  0
 25 19  1  0  0  0
  3  4  1  0  0  0
 18 26  1  0  0  0
M  END
> <minimizedAffinity>
-9.45419

$$$$
OCNT-2312338


 27 30  0  0  0  0  0  0  0  0999 V2000
   -2.7208   26.4270    6.0699 O   0  0  0  0  0  0  0  0  0  0  0  0
   -3.6706   26.9582    5.5024 C   0  0  0  0  0  0  0  0  0  0  0  0
   -4.3483   28.0237    6.0413 N   0  0  0  0  0  0  0  0  0  0  0  0
   -4.1545   26.5400    4.2630 N   0  0  0  0  0  0  0  0  0  0  0  0
   -3.4495   25.4096    3.6612 C   0  0  0  0  0  0  0  0  0  0  0  0
   -3.6763   25.3195    2.1549 C   0  0  0  0  0  0  0  0  0  0  0  0
   -5.1684   25.3170    1.7824 C   0  0  0  0  0  0  0  0  0  0  0  0
   -5.8174   26.5621    2.4127 C   0  0  0  0  0  0  0  0  0  0  0  0
   -5.5740   26.6584    3.9177 C   0  0  0  0  0  0  0  0  0  0  0  0
   -4.6591   28.6827    5.3432 H   0  0  0  0  0  0  0  0  0  0  0  0
   -5.8889   24.0070    2.1727 C   0  0  0  0  0  0  0  0  0  0  0  0
   -4.9916   22.7720    2.1692 C   0  0  0  0  0  0  0  0  0  0  0  0
   -5.9897   21.6440    2.0099 C   0  0  0  0  0  0  0  0  0  0  0  0
   -6.9240   22.1651    1.0177 N   0  0  0  0  0  0  0  0  0  0  0  0
   -7.0279   23.6115    1.2218 C   0  0  0  0  0  0  0  0  0  0  0  0
   -7.8331   21.7129    1.0977 H   0  0  0  0  0  0  0  0  0  0  0  0
   -3.9401   28.6085    7.3101 C   0  0  0  0  0  0  0  0  0  0  0  0
   -3.1670   29.9345    7.1423 C   0  0  0  0  0  0  0  0  0  0  0  0
   -3.7190   31.0891    7.9838 C   0  0  0  0  0  0  0  0  0  0  0  0
   -3.3496   30.8860    9.4438 C   0  0  0  0  0  0  0  0  0  0  0  0
   -1.9336   30.8851    9.6483 O   0  0  0  0  0  0  0  0  0  0  0  0
   -1.1995   30.1997    8.7185 C   0  0  0  0  0  0  0  0  0  0  0  0
    0.1477   30.0149    9.0335 C   0  0  0  0  0  0  0  0  0  0  0  0
    0.9948   29.3545    8.1445 C   0  0  0  0  0  0  0  0  0  0  0  0
    0.4968   28.8847    6.9319 C   0  0  0  0  0  0  0  0  0  0  0  0
   -0.8477   29.0749    6.6091 C   0  0  0  0  0  0  0  0  0  0  0  0
   -1.7101   29.7341    7.5006 C   0  0  0  0  0  0  0  0  0  0  0  0
  1  2  2  0  0  0
  2  3  1  0  0  0
  3 17  1  0  0  0
 17 18  1  0  0  0
 18 19  1  0  0  0
 19 20  1  0  0  0
 20 21  1  0  0  0
 21 22  1  0  0  0
 22 23  2  0  0  0
 23 24  1  0  0  0
 24 25  2  0  0  0
 25 26  1  0  0  0
 26 27  2  0  0  0
  2  4  1  0  0  0
  4  5  1  0  0  0
  5  6  1  0  0  0
  6  7  1  0  0  0
  7 11  1  0  0  0
 11 12  1  0  0  0
 12 13  1  0  0  0
 13 14  1  0  0  0
 14 15  1  0  0  0
  7  8  1  0  0  0
  8  9  1  0  0  0
 27 18  1  0  0  0
  9  4  1  0  0  0
 27 22  1  0  0  0
 15 11  1  0  0  0
  3 10  1  0  0  0
 14 16  1  0  0  0
M  END
> <minimizedAffinity>
-9.72407

$$$$
OCNT-2312351


 22 23  0  0  0  0  0  0  0  0999 V2000
   -3.6344   28.8494    6.5519 C   0  0  0  0  0  0  0  0  0  0  0  0
   -2.4418   28.7809    6.8505 O   0  0  0  0  0  0  0  0  0  0  0  0
   -4.2520   27.8885    5.7490 N   0  0  0  0  0  0  0  0  0  0  0  0
   -5.7043   27.7436    5.6838 C   0  0  0  0  0  0  0  0  0  0  0  0
   -6.1458   26.8295    4.5784 C   0  0  0  0  0  0  0  0  0  0  0  0
   -5.3190   26.1346    3.7747 C   0  0  0  0  0  0  0  0  0  0  0  0
   -3.8259   26.2336    3.9581 C   0  0  0  0  0  0  0  0  0  0  0  0
   -3.4623   26.7208    5.3608 C   0  0  0  0  0  0  0  0  0  0  0  0
   -5.8348   25.2803    2.6857 C   0  0  0  0  0  0  0  0  0  0  0  0
   -5.7640   25.6963    1.3481 C   0  0  0  0  0  0  0  0  0  0  0  0
   -6.2664   24.8926    0.3199 C   0  0  0  0  0  0  0  0  0  0  0  0
   -6.8516   23.6599    0.6145 C   0  0  0  0  0  0  0  0  0  0  0  0
   -7.4518   22.7181   -0.7030 Cl  0  0  0  0  0  0  0  0  0  0  0  0
   -6.9347   23.2346    1.9432 C   0  0  0  0  0  0  0  0  0  0  0  0
   -7.6456   21.7230    2.3878 Cl  0  0  0  0  0  0  0  0  0  0  0  0
   -6.4311   24.0433    2.9701 C   0  0  0  0  0  0  0  0  0  0  0  0
   -4.5149   29.9872    7.0567 C   0  0  0  0  0  0  0  0  0  0  0  0
   -4.5322   30.1034    8.5944 C   0  0  0  0  0  0  0  0  0  0  0  0
   -5.6488   31.0570    9.0426 C   0  0  0  0  0  0  0  0  0  0  0  0
   -5.8355   28.6910   10.1128 C   0  0  0  0  0  0  0  0  0  0  0  0
   -4.7362   28.7477    9.1543 N   0  0  0  0  0  0  0  0  0  0  0  0
   -3.8860   28.4613    9.6406 H   0  0  0  0  0  0  0  0  0  0  0  0
 20 21  1  0  0  0
 21 18  1  0  0  0
 18 19  1  0  0  0
 18 17  1  0  0  0
 17  1  1  0  0  0
  1  2  2  0  0  0
  1  3  1  0  0  0
  3  4  1  0  0  0
  4  5  1  0  0  0
  5  6  2  0  0  0
  6  9  1  0  0  0
  9 10  1  0  0  0
 10 11  2  0  0  0
 11 12  1  0  0  0
 12 13  1  0  0  0
 12 14  2  0  0  0
 14 15  1  0  0  0
 14 16  1  0  0  0
  6  7  1  0  0  0
  7  8  1  0  0  0
  8  3  1  0  0  0
 16  9  2  0  0  0
 21 22  1  0  0  0
M  END
> <minimizedAffinity>
-8.26480

$$$$
OCNT-2312355


 23 25  0  0  0  0  0  0  0  0999 V2000
    1.3207   29.1549    8.8812 C   0  0  0  0  0  0  0  0  0  0  0  0
    0.0820   29.6199    8.2080 C   0  0  0  0  0  0  0  0  0  0  0  0
   -0.6768   30.5634    8.7744 N   0  0  0  0  0  0  0  0  0  0  0  0
   -1.7234   30.7358    7.9284 N   0  0  0  0  0  0  0  0  0  0  0  0
   -1.6164   29.9068    6.8328 C   0  0  0  0  0  0  0  0  0  0  0  0
   -0.4576   29.1705    6.9765 C   0  0  0  0  0  0  0  0  0  0  0  0
   -2.7510   31.6780    8.2201 C   0  0  0  0  0  0  0  0  0  0  0  0
   -3.6843   32.0091    7.2253 C   0  0  0  0  0  0  0  0  0  0  0  0
   -4.7010   32.9296    7.4890 C   0  0  0  0  0  0  0  0  0  0  0  0
   -4.7937   33.5260    8.7444 C   0  0  0  0  0  0  0  0  0  0  0  0
   -3.8708   33.2036    9.7380 C   0  0  0  0  0  0  0  0  0  0  0  0
   -2.8504   32.2822    9.4814 C   0  0  0  0  0  0  0  0  0  0  0  0
    0.0952   28.1431    6.0512 C   0  0  0  0  0  0  0  0  0  0  0  0
   -0.5126   26.8671    6.3975 N   0  0  0  0  0  0  0  0  0  0  0  0
   -1.3632   27.0245    6.9335 H   0  0  0  0  0  0  0  0  0  0  0  0
   -0.8278   26.0509    5.2153 C   0  0  0  0  0  0  0  0  0  0  0  0
    0.1938   26.2615    4.0930 C   0  0  0  0  0  0  0  0  0  0  0  0
   -2.2156   26.3980    4.7337 C   0  0  0  0  0  0  0  0  0  0  0  0
   -2.7755   26.3184    3.4722 C   0  0  0  0  0  0  0  0  0  0  0  0
   -4.0580   26.7676    3.6102 N   0  0  0  0  0  0  0  0  0  0  0  0
   -4.2432   27.0873    4.9236 C   0  0  0  0  0  0  0  0  0  0  0  0
   -3.1564   26.8745    5.6278 N   0  0  0  0  0  0  0  0  0  0  0  0
   -4.7470   26.8527    2.8762 H   0  0  0  0  0  0  0  0  0  0  0  0
  1  2  1  0  0  0
  2  3  2  0  0  0
  3  4  1  0  0  0
  4  7  1  0  0  0
  7  8  2  0  0  0
  8  9  1  0  0  0
  9 10  2  0  0  0
 10 11  1  0  0  0
 11 12  2  0  0  0
  4  5  1  0  0  0
  5  6  2  0  0  0
  6 13  1  0  0  0
 13 14  1  0  0  0
 14 16  1  0  0  0
 16 17  1  0  0  0
 16 18  1  0  0  0
 18 19  2  0  0  0
 19 20  1  0  0  0
 20 21  1  0  0  0
 21 22  2  0  0  0
  6  2  1  0  0  0
 22 18  1  0  0  0
 12  7  1  0  0  0
 14 15  1  0  0  0
 20 23  1  0  0  0
M  END
> <minimizedAffinity>
-8.09812

$$$$
OCNT-2312358


 31 34  0  0  0  0  0  0  0  0999 V2000
   -8.1067   30.3122    6.1257 O   0  0  0  0  0  0  0  0  0  0  0  0
   -6.9228   29.9674    6.0839 C   0  0  0  0  0  0  0  0  0  0  0  0
   -6.0672   30.2710    7.1341 N   0  0  0  0  0  0  0  0  0  0  0  0
   -6.5493   30.9788    8.3042 C   0  0  0  0  0  0  0  0  0  0  0  0
   -5.4352   30.8253    9.3308 C   0  0  0  0  0  0  0  0  0  0  0  0
   -4.1720   30.8412    8.4640 C   0  0  0  0  0  0  0  0  0  0  0  0
   -3.8893   32.2051    8.1078 O   0  0  0  0  0  0  0  0  0  0  0  0
   -4.6263   30.0603    7.2086 C   0  0  0  0  0  0  0  0  0  0  0  0
   -3.2644   32.1996    7.3624 H   0  0  0  0  0  0  0  0  0  0  0  0
   -6.4137   29.2184    4.9106 C   0  0  0  0  0  0  0  0  0  0  0  0
   -6.0954   29.7562    3.7176 N   0  0  0  0  0  0  0  0  0  0  0  0
   -5.6694   28.7121    2.9874 N   0  0  0  0  0  0  0  0  0  0  0  0
   -5.6875   27.5059    3.6354 C   0  0  0  0  0  0  0  0  0  0  0  0
   -6.1656   27.8139    4.8935 C   0  0  0  0  0  0  0  0  0  0  0  0
   -5.3658   28.8649    2.0300 H   0  0  0  0  0  0  0  0  0  0  0  0
   -5.2599   26.2472    3.0095 C   0  0  0  0  0  0  0  0  0  0  0  0
   -5.8110   25.8615    1.7767 C   0  0  0  0  0  0  0  0  0  0  0  0
   -5.4274   24.6704    1.1525 C   0  0  0  0  0  0  0  0  0  0  0  0
   -4.4836   23.8406    1.7502 C   0  0  0  0  0  0  0  0  0  0  0  0
   -3.9204   24.1986    2.9731 C   0  0  0  0  0  0  0  0  0  0  0  0
   -4.3064   25.3907    3.5950 C   0  0  0  0  0  0  0  0  0  0  0  0
   -3.7351   25.7200    4.8015 O   0  0  0  0  0  0  0  0  0  0  0  0
   -3.1117   25.0132    5.0448 H   0  0  0  0  0  0  0  0  0  0  0  0
   -2.9335   30.1991    9.1157 C   0  0  0  0  0  0  0  0  0  0  0  0
   -1.9680   29.5428    8.1504 C   0  0  0  0  0  0  0  0  0  0  0  0
   -2.0383   28.1658    7.8887 C   0  0  0  0  0  0  0  0  0  0  0  0
   -1.1460   27.5678    6.9976 C   0  0  0  0  0  0  0  0  0  0  0  0
   -0.1814   28.3443    6.3691 C   0  0  0  0  0  0  0  0  0  0  0  0
    0.6753   27.7698    5.5143 F   0  0  0  0  0  0  0  0  0  0  0  0
   -0.0921   29.7086    6.6138 C   0  0  0  0  0  0  0  0  0  0  0  0
   -0.9842   30.3088    7.5040 C   0  0  0  0  0  0  0  0  0  0  0  0
  1  2  2  0  0  0
  2 10  1  0  0  0
 10 11  2  0  0  0
 11 12  1  0  0  0
 12 13  1  0  0  0
 13 16  1  0  0  0
 16 17  2  0  0  0
 17 18  1  0  0  0
 18 19  2  0  0  0
 19 20  1  0  0  0
 20 21  2  0  0  0
 21 22  1  0  0  0
 13 14  2  0  0  0
  2  3  1  0  0  0
  3  4  1  0  0  0
  4  5  1  0  0  0
  5  6  1  0  0  0
  6  7  1  0  0  0
  6 24  1  0  0  0
 24 25  1  0  0  0
 25 26  1  0  0  0
 26 27  2  0  0  0
 27 28  1  0  0  0
 28 29  1  0  0  0
 28 30  2  0  0  0
 30 31  1  0  0  0
  6  8  1  0  0  0
 14 10  1  0  0  0
  8  3  1  0  0  0
 21 16  1  0  0  0
 31 25  2  0  0  0
 12 15  1  0  0  0
 22 23  1  0  0  0
  7  9  1  0  0  0
M  END
> <minimizedAffinity>
-10.43699

$$$$
OCNT-2312364


 27 29  0  0  0  0  0  0  0  0999 V2000
   -2.8056   30.7335    6.9953 C   0  0  0  0  0  0  0  0  0  0  0  0
   -1.6749   30.0206    6.7441 N   0  0  0  0  0  0  0  0  0  0  0  0
   -0.6549   29.9940    7.6548 C   0  0  0  0  0  0  0  0  0  0  0  0
   -0.6491   30.6407    8.8519 N   0  0  0  0  0  0  0  0  0  0  0  0
   -1.7758   31.3361    9.0473 C   0  0  0  0  0  0  0  0  0  0  0  0
   -2.8680   31.4425    8.2073 C   0  0  0  0  0  0  0  0  0  0  0  0
   -3.8266   32.2688    8.7605 N   0  0  0  0  0  0  0  0  0  0  0  0
   -3.3254   32.6403    9.9194 C   0  0  0  0  0  0  0  0  0  0  0  0
   -2.0873   32.0992   10.1356 N   0  0  0  0  0  0  0  0  0  0  0  0
   -1.4994   32.2322   10.9448 H   0  0  0  0  0  0  0  0  0  0  0  0
    0.5754   29.1490    7.2954 C   0  0  0  0  0  0  0  0  0  0  0  0
    1.1575   29.5027    6.1088 F   0  0  0  0  0  0  0  0  0  0  0  0
    0.2937   27.8154    7.1676 F   0  0  0  0  0  0  0  0  0  0  0  0
    1.5716   29.2273    8.2272 F   0  0  0  0  0  0  0  0  0  0  0  0
   -3.8533   30.7533    6.0757 N   0  0  0  0  0  0  0  0  0  0  0  0
   -3.4886   30.6974    5.1234 H   0  0  0  0  0  0  0  0  0  0  0  0
   -4.9770   29.8494    6.3296 C   0  0  0  0  0  0  0  0  0  0  0  0
   -7.2370   30.1209    5.4551 O   0  0  0  0  0  0  0  0  0  0  0  0
   -5.9070   29.7114    5.1030 C   0  0  0  0  0  0  0  0  0  0  0  0
   -7.8164   29.8381    4.7265 H   0  0  0  0  0  0  0  0  0  0  0  0
   -5.9321   28.2911    4.5732 C   0  0  0  0  0  0  0  0  0  0  0  0
   -5.7121   28.0489    3.2081 C   0  0  0  0  0  0  0  0  0  0  0  0
   -5.7160   26.7438    2.7093 C   0  0  0  0  0  0  0  0  0  0  0  0
   -5.9343   25.6724    3.5723 C   0  0  0  0  0  0  0  0  0  0  0  0
   -5.9395   24.0658    2.9567 Cl  0  0  0  0  0  0  0  0  0  0  0  0
   -6.1453   25.8938    4.9310 C   0  0  0  0  0  0  0  0  0  0  0  0
   -6.1409   27.1981    5.4306 C   0  0  0  0  0  0  0  0  0  0  0  0
 18 19  1  0  0  0
 19 17  1  0  0  0
 17 15  1  0  0  0
 15  1  1  0  0  0
  1  2  1  0  0  0
  2  3  2  0  0  0
  3 11  1  0  0  0
 11 12  1  0  0  0
 11 13  1  0  0  0
 11 14  1  0  0  0
  3  4  1  0  0  0
  4  5  2  0  0  0
  5  6  1  0  0  0
  6  7  1  0  0  0
  7  8  2  0  0  0
  8  9  1  0  0  0
 19 21  1  0  0  0
 21 22  1  0  0  0
 22 23  2  0  0  0
 23 24  1  0  0  0
 24 25  1  0  0  0
 24 26  2  0  0  0
 26 27  1  0  0  0
  6  1  2  0  0  0
 27 21  2  0  0  0
  9  5  1  0  0  0
 18 20  1  0  0  0
 15 16  1  0  0  0
  9 10  1  0  0  0
M  END
> <minimizedAffinity>
-9.51693

$$$$
OCNT-2312368


 26 29  0  0  0  0  0  0  0  0999 V2000
   -2.2270   29.8683    8.6536 C   0  0  0  0  0  0  0  0  0  0  0  0
   -1.0489   29.1954    8.3013 C   0  0  0  0  0  0  0  0  0  0  0  0
   -1.0400   28.3248    7.2198 C   0  0  0  0  0  0  0  0  0  0  0  0
   -2.2053   28.1309    6.4874 C   0  0  0  0  0  0  0  0  0  0  0  0
   -3.4025   28.8048    6.8154 C   0  0  0  0  0  0  0  0  0  0  0  0
   -4.6017   28.6187    6.0780 C   0  0  0  0  0  0  0  0  0  0  0  0
   -5.7486   29.3067    6.4795 C   0  0  0  0  0  0  0  0  0  0  0  0
   -5.6842   30.1470    7.5772 C   0  0  0  0  0  0  0  0  0  0  0  0
   -6.9002   30.9003    8.0245 C   0  0  0  0  0  0  0  0  0  0  0  0
   -4.5498   30.3363    8.2807 N   0  0  0  0  0  0  0  0  0  0  0  0
   -3.4195   29.6845    7.9228 C   0  0  0  0  0  0  0  0  0  0  0  0
   -4.6156   27.7820    4.9370 N   0  0  0  0  0  0  0  0  0  0  0  0
   -5.6861   28.1535    3.9958 C   0  0  0  0  0  0  0  0  0  0  0  0
   -5.7311   27.1437    2.8587 C   0  0  0  0  0  0  0  0  0  0  0  0
   -6.0874   25.7422    3.3765 C   0  0  0  0  0  0  0  0  0  0  0  0
   -5.6524   25.5333    4.8359 C   0  0  0  0  0  0  0  0  0  0  0  0
   -4.4040   26.3431    5.1679 C   0  0  0  0  0  0  0  0  0  0  0  0
   -5.4183   24.7441    2.5868 O   0  0  0  0  0  0  0  0  0  0  0  0
   -6.1463   24.2474    1.5269 C   0  0  0  0  0  0  0  0  0  0  0  0
   -6.8695   23.0813    1.7409 C   0  0  0  0  0  0  0  0  0  0  0  0
   -7.6205   22.4953    0.7754 N   0  0  0  0  0  0  0  0  0  0  0  0
   -7.6123   23.1313   -0.4170 C   0  0  0  0  0  0  0  0  0  0  0  0
   -6.8899   24.2947   -0.6322 C   0  0  0  0  0  0  0  0  0  0  0  0
   -6.1410   24.8795    0.3321 N   0  0  0  0  0  0  0  0  0  0  0  0
   -1.6507   31.9960    9.6022 C   0  0  0  0  0  0  0  0  0  0  0  0
   -2.3103   30.7447    9.7165 O   0  0  0  0  0  0  0  0  0  0  0  0
 25 26  1  0  0  0
 26  1  1  0  0  0
  1  2  1  0  0  0
  2  3  2  0  0  0
  3  4  1  0  0  0
  4  5  2  0  0  0
  5  6  1  0  0  0
  6 12  1  0  0  0
 12 13  1  0  0  0
 13 14  1  0  0  0
 14 15  1  0  0  0
 15 18  1  0  0  0
 18 19  1  0  0  0
 19 20  2  0  0  0
 20 21  1  0  0  0
 21 22  2  0  0  0
 22 23  1  0  0  0
 23 24  2  0  0  0
 15 16  1  0  0  0
 16 17  1  0  0  0
  6  7  2  0  0  0
  7  8  1  0  0  0
  8  9  1  0  0  0
  8 10  2  0  0  0
 10 11  1  0  0  0
 11  1  2  0  0  0
 11  5  1  0  0  0
 17 12  1  0  0  0
 24 19  1  0  0  0
M  END
> <minimizedAffinity>
-8.87043

$$$$
OCNT-2312372


 26 29  0  0  0  0  0  0  0  0999 V2000
   -5.4635   29.4364    5.5639 N   0  0  0  0  0  0  0  0  0  0  0  0
   -5.7115   28.1704    6.2518 C   0  0  0  0  0  0  0  0  0  0  0  0
   -5.7487   26.9759    5.3384 C   0  0  0  0  0  0  0  0  0  0  0  0
   -5.7610   27.0617    3.9947 C   0  0  0  0  0  0  0  0  0  0  0  0
   -5.7379   28.4175    3.3300 C   0  0  0  0  0  0  0  0  0  0  0  0
   -6.1596   29.5476    4.2853 C   0  0  0  0  0  0  0  0  0  0  0  0
   -5.7798   25.8585    3.1368 C   0  0  0  0  0  0  0  0  0  0  0  0
   -5.7410   25.9697    1.7368 C   0  0  0  0  0  0  0  0  0  0  0  0
   -5.7476   24.8317    0.9243 C   0  0  0  0  0  0  0  0  0  0  0  0
   -5.7917   23.5677    1.5030 C   0  0  0  0  0  0  0  0  0  0  0  0
   -5.8187   22.4967    0.6473 O   0  0  0  0  0  0  0  0  0  0  0  0
   -6.2072   21.2980    1.3281 C   0  0  0  0  0  0  0  0  0  0  0  0
   -5.4574   21.1615    2.6428 C   0  0  0  0  0  0  0  0  0  0  0  0
   -5.8038   22.2260    3.5359 O   0  0  0  0  0  0  0  0  0  0  0  0
   -5.7963   23.4391    2.8940 C   0  0  0  0  0  0  0  0  0  0  0  0
   -5.8028   24.5760    3.7043 C   0  0  0  0  0  0  0  0  0  0  0  0
   -5.5240   30.6158    6.4265 C   0  0  0  0  0  0  0  0  0  0  0  0
   -2.1508   32.0944   10.5576 O   0  0  0  0  0  0  0  0  0  0  0  0
   -2.5438   31.8684    9.4122 C   0  0  0  0  0  0  0  0  0  0  0  0
   -4.0195   31.9065    9.0735 C   0  0  0  0  0  0  0  0  0  0  0  0
   -4.3401   32.5427    7.7300 C   0  0  0  0  0  0  0  0  0  0  0  0
   -4.2901   31.5542    6.5527 C   0  0  0  0  0  0  0  0  0  0  0  0
   -3.0195   30.6734    6.5774 C   0  0  0  0  0  0  0  0  0  0  0  0
   -1.7709   31.4119    7.0341 C   0  0  0  0  0  0  0  0  0  0  0  0
   -1.6305   31.4956    8.4751 N   0  0  0  0  0  0  0  0  0  0  0  0
   -0.6860   31.5431    8.8409 H   0  0  0  0  0  0  0  0  0  0  0  0
 18 19  2  0  0  0
 19 20  1  0  0  0
 20 21  1  0  0  0
 21 22  1  0  0  0
 22 17  1  0  0  0
 17  1  1  0  0  0
  1  2  1  0  0  0
  2  3  1  0  0  0
  3  4  2  0  0  0
  4  7  1  0  0  0
  7  8  1  0  0  0
  8  9  2  0  0  0
  9 10  1  0  0  0
 10 11  1  0  0  0
 11 12  1  0  0  0
 12 13  1  0  0  0
 13 14  1  0  0  0
 14 15  1  0  0  0
 15 16  1  0  0  0
  4  5  1  0  0  0
  5  6  1  0  0  0
 22 23  1  0  0  0
 23 24  1  0  0  0
 24 25  1  0  0  0
 25 19  1  0  0  0
  6  1  1  0  0  0
 16  7  2  0  0  0
 15 10  2  0  0  0
 25 26  1  0  0  0
M  END
> <minimizedAffinity>
-9.79843

$$$$
OCNT-2312385


 29 31  0  0  0  0  0  0  0  0999 V2000
   -4.7470   27.4785    5.7207 O   0  0  0  0  0  0  0  0  0  0  0  0
   -4.0085   26.9395    4.9031 C   0  0  0  0  0  0  0  0  0  0  0  0
   -2.7517   26.4598    5.2386 N   0  0  0  0  0  0  0  0  0  0  0  0
   -2.2048   25.9513    4.5563 H   0  0  0  0  0  0  0  0  0  0  0  0
   -4.3602   26.7528    3.4257 C   0  0  0  0  0  0  0  0  0  0  0  0
   -5.5048   25.7781    3.2739 C   0  0  0  0  0  0  0  0  0  0  0  0
   -5.0870   25.1313    1.9985 C   0  0  0  0  0  0  0  0  0  0  0  0
   -3.8606   25.3684    1.6611 N   0  0  0  0  0  0  0  0  0  0  0  0
   -3.2951   26.1805    2.6742 O   0  0  0  0  0  0  0  0  0  0  0  0
   -6.0064   24.2851    1.2115 C   0  0  0  0  0  0  0  0  0  0  0  0
   -6.6712   24.8022    0.0969 C   0  0  0  0  0  0  0  0  0  0  0  0
   -6.5315   26.0835   -0.2699 F   0  0  0  0  0  0  0  0  0  0  0  0
   -7.5327   24.0073   -0.6623 C   0  0  0  0  0  0  0  0  0  0  0  0
   -7.7425   22.6746   -0.3151 C   0  0  0  0  0  0  0  0  0  0  0  0
   -7.0894   22.1452    0.7954 C   0  0  0  0  0  0  0  0  0  0  0  0
   -6.2303   22.9482    1.5482 C   0  0  0  0  0  0  0  0  0  0  0  0
   -5.6217   22.3856    2.6026 F   0  0  0  0  0  0  0  0  0  0  0  0
   -2.1949   26.6442    6.5713 C   0  0  0  0  0  0  0  0  0  0  0  0
   -1.1391   27.7693    6.6391 C   0  0  0  0  0  0  0  0  0  0  0  0
    0.1385   27.2014    6.9332 O   0  0  0  0  0  0  0  0  0  0  0  0
    0.6405   27.8462    7.4613 H   0  0  0  0  0  0  0  0  0  0  0  0
   -1.4525   28.8742    7.6293 C   0  0  0  0  0  0  0  0  0  0  0  0
   -0.4279   29.7110    8.1031 C   0  0  0  0  0  0  0  0  0  0  0  0
   -0.7070   30.7389    9.0096 C   0  0  0  0  0  0  0  0  0  0  0  0
   -2.0123   30.9353    9.4584 C   0  0  0  0  0  0  0  0  0  0  0  0
   -2.3379   32.1996   10.5800 Cl  0  0  0  0  0  0  0  0  0  0  0  0
   -3.0317   30.1052    9.0016 C   0  0  0  0  0  0  0  0  0  0  0  0
   -4.2913   30.2674    9.4329 F   0  0  0  0  0  0  0  0  0  0  0  0
   -2.7606   29.0817    8.0953 C   0  0  0  0  0  0  0  0  0  0  0  0
  1  2  2  0  0  0
  2  3  1  0  0  0
  3 18  1  0  0  0
 18 19  1  0  0  0
 19 20  1  0  0  0
 19 22  1  0  0  0
 22 23  1  0  0  0
 23 24  2  0  0  0
 24 25  1  0  0  0
 25 26  1  0  0  0
 25 27  2  0  0  0
 27 28  1  0  0  0
 27 29  1  0  0  0
  2  5  1  0  0  0
  5  6  1  0  0  0
  6  7  1  0  0  0
  7 10  1  0  0  0
 10 11  2  0  0  0
 11 12  1  0  0  0
 11 13  1  0  0  0
 13 14  2  0  0  0
 14 15  1  0  0  0
 15 16  2  0  0  0
 16 17  1  0  0  0
  7  8  2  0  0  0
  8  9  1  0  0  0
 29 22  2  0  0  0
  9  5  1  0  0  0
 16 10  1  0  0  0
  3  4  1  0  0  0
 20 21  1  0  0  0
M  END
> <minimizedAffinity>
-10.55468

$$$$
OCNT-2312389


 22 24  0  0  0  0  0  0  0  0999 V2000
    0.0868   28.4411    6.8991 C   0  0  0  0  0  0  0  0  0  0  0  0
    0.7245   29.0293    6.0340 O   0  0  0  0  0  0  0  0  0  0  0  0
   -0.3798   27.1540    6.7458 N   0  0  0  0  0  0  0  0  0  0  0  0
   -1.1322   26.8484    7.3509 H   0  0  0  0  0  0  0  0  0  0  0  0
   -0.3008   29.0512    8.2361 C   0  0  0  0  0  0  0  0  0  0  0  0
   -3.1386   30.7812    6.6287 C   0  0  0  0  0  0  0  0  0  0  0  0
   -2.6180   30.0324    7.8623 C   0  0  0  0  0  0  0  0  0  0  0  0
   -3.4883   30.3276    9.0909 C   0  0  0  0  0  0  0  0  0  0  0  0
   -3.3676   31.7671    9.5885 C   0  0  0  0  0  0  0  0  0  0  0  0
   -1.9542   32.3337    9.4703 C   0  0  0  0  0  0  0  0  0  0  0  0
   -0.9024   31.2376    9.3656 C   0  0  0  0  0  0  0  0  0  0  0  0
   -1.1153   30.3551    8.1160 C   0  0  0  0  0  0  0  0  0  0  0  0
   -0.2902   26.4821    5.4640 C   0  0  0  0  0  0  0  0  0  0  0  0
   -1.6592   26.4387    4.8488 C   0  0  0  0  0  0  0  0  0  0  0  0
   -1.9105   25.9575    3.6467 N   0  0  0  0  0  0  0  0  0  0  0  0
   -3.2700   26.0489    3.3753 C   0  0  0  0  0  0  0  0  0  0  0  0
   -3.9207   25.6374    2.2038 C   0  0  0  0  0  0  0  0  0  0  0  0
   -5.2623   25.7820    2.0606 N   0  0  0  0  0  0  0  0  0  0  0  0
   -5.9691   26.3311    3.0699 C   0  0  0  0  0  0  0  0  0  0  0  0
   -5.4250   26.7705    4.2648 C   0  0  0  0  0  0  0  0  0  0  0  0
   -4.0423   26.6137    4.3916 C   0  0  0  0  0  0  0  0  0  0  0  0
   -3.0182   27.0357    5.7090 S   0  0  0  0  0  0  0  0  0  0  0  0
  6  7  1  0  0  0
  7  8  1  0  0  0
  8  9  1  0  0  0
  9 10  1  0  0  0
 10 11  1  0  0  0
 11 12  1  0  0  0
 12  5  1  0  0  0
  5  1  1  0  0  0
  1  2  2  0  0  0
  1  3  1  0  0  0
  3 13  1  0  0  0
 13 14  1  0  0  0
 14 15  2  0  0  0
 15 16  1  0  0  0
 16 17  2  0  0  0
 17 18  1  0  0  0
 18 19  2  0  0  0
 19 20  1  0  0  0
 20 21  2  0  0  0
 21 22  1  0  0  0
 12  7  1  0  0  0
 22 14  1  0  0  0
 21 16  1  0  0  0
  3  4  1  0  0  0
M  END
> <minimizedAffinity>
-8.25570

$$$$
OCNT-2312400


 31 34  0  0  0  0  0  0  0  0999 V2000
   -5.5951   25.1415    3.4368 N   0  0  0  0  0  0  0  0  0  0  0  0
   -4.7649   26.2612    3.3778 C   0  0  0  0  0  0  0  0  0  0  0  0
   -3.7915   26.3374    2.6285 O   0  0  0  0  0  0  0  0  0  0  0  0
   -5.0332   27.4090    4.2705 C   0  0  0  0  0  0  0  0  0  0  0  0
   -6.1012   28.2591    3.9748 C   0  0  0  0  0  0  0  0  0  0  0  0
   -6.3818   29.3360    4.8170 C   0  0  0  0  0  0  0  0  0  0  0  0
   -5.5972   29.5626    5.9535 C   0  0  0  0  0  0  0  0  0  0  0  0
   -5.9287   30.6529    6.7687 N   0  0  0  0  0  0  0  0  0  0  0  0
   -5.1957   31.1352    7.8180 C   0  0  0  0  0  0  0  0  0  0  0  0
   -5.6540   32.0575    8.4954 O   0  0  0  0  0  0  0  0  0  0  0  0
   -3.7877   30.6262    8.0260 C   0  0  0  0  0  0  0  0  0  0  0  0
   -3.6096   28.8478    7.7720 S   0  0  0  0  0  0  0  0  0  0  0  0
   -4.5490   28.6857    6.2702 C   0  0  0  0  0  0  0  0  0  0  0  0
   -4.2789   27.5989    5.4318 C   0  0  0  0  0  0  0  0  0  0  0  0
   -6.7990   31.1456    6.6087 H   0  0  0  0  0  0  0  0  0  0  0  0
   -6.4500   24.8126    4.5901 C   0  0  0  0  0  0  0  0  0  0  0  0
   -7.0880   23.4196    4.5031 C   0  0  0  0  0  0  0  0  0  0  0  0
   -5.6447   21.9298    6.6875 C   0  0  0  0  0  0  0  0  0  0  0  0
   -7.0921   22.3245    6.8161 C   0  0  0  0  0  0  0  0  0  0  0  0
   -7.7857   21.9927    7.9910 C   0  0  0  0  0  0  0  0  0  0  0  0
   -9.1237   22.3497    8.1586 C   0  0  0  0  0  0  0  0  0  0  0  0
   -9.7876   23.0476    7.1557 C   0  0  0  0  0  0  0  0  0  0  0  0
   -9.1126   23.3904    5.9855 C   0  0  0  0  0  0  0  0  0  0  0  0
   -7.7626   23.0407    5.8031 C   0  0  0  0  0  0  0  0  0  0  0  0
   -5.3385   24.0660    2.4764 C   0  0  0  0  0  0  0  0  0  0  0  0
   -6.1416   24.2550    1.2347 C   0  0  0  0  0  0  0  0  0  0  0  0
   -7.1983   23.5687    0.8445 N   0  0  0  0  0  0  0  0  0  0  0  0
   -7.5712   24.1203   -0.3547 C   0  0  0  0  0  0  0  0  0  0  0  0
   -6.7293   25.1488   -0.7034 C   0  0  0  0  0  0  0  0  0  0  0  0
   -5.8252   25.2282    0.3166 N   0  0  0  0  0  0  0  0  0  0  0  0
   -5.0274   25.8515    0.3956 H   0  0  0  0  0  0  0  0  0  0  0  0
 18 19  1  0  0  0
 19 20  2  0  0  0
 20 21  1  0  0  0
 21 22  2  0  0  0
 22 23  1  0  0  0
 23 24  2  0  0  0
 24 17  1  0  0  0
 17 16  1  0  0  0
 16  1  1  0  0  0
  1 25  1  0  0  0
 25 26  1  0  0  0
 26 27  2  0  0  0
 27 28  1  0  0  0
 28 29  2  0  0  0
 29 30  1  0  0  0
  1  2  1  0  0  0
  2  3  2  0  0  0
  2  4  1  0  0  0
  4  5  1  0  0  0
  5  6  2  0  0  0
  6  7  1  0  0  0
  7  8  1  0  0  0
  8  9  1  0  0  0
  9 10  2  0  0  0
  9 11  1  0  0  0
 11 12  1  0  0  0
 12 13  1  0  0  0
 13 14  1  0  0  0
 24 19  1  0  0  0
 30 26  1  0  0  0
 14  4  2  0  0  0
 13  7  2  0  0  0
 30 31  1  0  0  0
  8 15  1  0  0  0
M  END
> <minimizedAffinity>
-9.92195

$$$$
OCNT-2312401


 23 25  0  0  0  0  0  0  0  0999 V2000
   -1.9082   27.9984    6.8955 C   0  0  0  0  0  0  0  0  0  0  0  0
   -0.6995   27.4733    6.6742 N   0  0  0  0  0  0  0  0  0  0  0  0
   -0.6514   26.5307    5.7252 C   0  0  0  0  0  0  0  0  0  0  0  0
   -1.7493   26.1231    5.0011 C   0  0  0  0  0  0  0  0  0  0  0  0
   -2.9593   26.7323    5.2799 C   0  0  0  0  0  0  0  0  0  0  0  0
   -3.0355   27.6620    6.2493 N   0  0  0  0  0  0  0  0  0  0  0  0
   -4.1223   26.3817    4.6114 N   0  0  0  0  0  0  0  0  0  0  0  0
   -4.3702   27.0358    3.3202 C   0  0  0  0  0  0  0  0  0  0  0  0
   -5.7403   26.6165    2.7586 C   0  0  0  0  0  0  0  0  0  0  0  0
   -5.8747   25.1723    2.5103 N   0  0  0  0  0  0  0  0  0  0  0  0
   -5.2006   24.3460    3.5414 C   0  0  0  0  0  0  0  0  0  0  0  0
   -3.9459   23.7346    2.8861 C   0  0  0  0  0  0  0  0  0  0  0  0
   -6.1476   23.1892    3.9188 C   0  0  0  0  0  0  0  0  0  0  0  0
   -4.7991   25.1002    4.8574 C   0  0  0  0  0  0  0  0  0  0  0  0
   -6.8655   24.9444    2.4465 H   0  0  0  0  0  0  0  0  0  0  0  0
   -1.9368   28.9679    7.8734 O   0  0  0  0  0  0  0  0  0  0  0  0
   -3.9010   32.8555    9.2550 C   0  0  0  0  0  0  0  0  0  0  0  0
   -3.0333   31.7383    8.6789 C   0  0  0  0  0  0  0  0  0  0  0  0
   -1.9819   31.2789    9.7033 C   0  0  0  0  0  0  0  0  0  0  0  0
   -0.7104   30.7067    9.0658 C   0  0  0  0  0  0  0  0  0  0  0  0
   -0.9787   30.0236    7.7215 C   0  0  0  0  0  0  0  0  0  0  0  0
   -1.5699   31.0334    6.7190 C   0  0  0  0  0  0  0  0  0  0  0  0
   -2.3722   32.1686    7.3686 C   0  0  0  0  0  0  0  0  0  0  0  0
 17 18  1  0  0  0
 18 19  1  0  0  0
 19 20  1  0  0  0
 20 21  1  0  0  0
 21 16  1  0  0  0
 16  1  1  0  0  0
  1  2  2  0  0  0
  2  3  1  0  0  0
  3  4  2  0  0  0
  4  5  1  0  0  0
  5  7  1  0  0  0
  7  8  1  0  0  0
  8  9  1  0  0  0
  9 10  1  0  0  0
 10 11  1  0  0  0
 11 12  1  0  0  0
 11 13  1  0  0  0
 11 14  1  0  0  0
  5  6  2  0  0  0
 21 22  1  0  0  0
 22 23  1  0  0  0
 23 18  1  0  0  0
  6  1  1  0  0  0
 14  7  1  0  0  0
 10 15  1  0  0  0
M  END
> <minimizedAffinity>
-8.71145

$$$$
OCNT-2312407


 25 28  0  0  0  0  0  0  0  0999 V2000
   -6.5975   29.4057    5.0550 O   0  0  0  0  0  0  0  0  0  0  0  0
   -6.3088   28.3017    5.5053 C   0  0  0  0  0  0  0  0  0  0  0  0
   -6.1697   28.0583    6.8497 N   0  0  0  0  0  0  0  0  0  0  0  0
   -5.6679   27.2411    7.1781 H   0  0  0  0  0  0  0  0  0  0  0  0
   -6.0692   27.1510    4.5898 C   0  0  0  0  0  0  0  0  0  0  0  0
   -5.8341   27.4177    3.2372 C   0  0  0  0  0  0  0  0  0  0  0  0
   -5.6298   26.3694    2.3360 C   0  0  0  0  0  0  0  0  0  0  0  0
   -5.6684   25.0350    2.7704 C   0  0  0  0  0  0  0  0  0  0  0  0
   -5.4789   23.9652    1.8871 C   0  0  0  0  0  0  0  0  0  0  0  0
   -5.5443   22.6716    2.3813 C   0  0  0  0  0  0  0  0  0  0  0  0
   -5.7771   22.3708    3.6759 N   0  0  0  0  0  0  0  0  0  0  0  0
   -5.9562   23.4170    4.5162 C   0  0  0  0  0  0  0  0  0  0  0  0
   -5.9139   24.7606    4.1313 C   0  0  0  0  0  0  0  0  0  0  0  0
   -6.1148   25.8215    5.0355 C   0  0  0  0  0  0  0  0  0  0  0  0
   -6.2867   29.1285    7.8100 C   0  0  0  0  0  0  0  0  0  0  0  0
   -4.9128   29.6106    8.1212 C   0  0  0  0  0  0  0  0  0  0  0  0
   -3.7783   29.1142    7.6504 N   0  0  0  0  0  0  0  0  0  0  0  0
   -2.7952   29.8715    8.2190 C   0  0  0  0  0  0  0  0  0  0  0  0
   -3.3281   30.8272    9.0493 C   0  0  0  0  0  0  0  0  0  0  0  0
   -2.5693   31.8062    9.8594 C   0  0  0  0  0  0  0  0  0  0  0  0
   -1.1214   31.8867    9.3292 C   0  0  0  0  0  0  0  0  0  0  0  0
   -0.5247   30.4947    9.0181 C   0  0  0  0  0  0  0  0  0  0  0  0
   -1.3415   29.7202    7.9617 C   0  0  0  0  0  0  0  0  0  0  0  0
   -4.6786   30.6589    8.9841 N   0  0  0  0  0  0  0  0  0  0  0  0
   -5.3833   31.1903    9.4801 H   0  0  0  0  0  0  0  0  0  0  0  0
  1  2  2  0  0  0
  2  3  1  0  0  0
  3 15  1  0  0  0
 15 16  1  0  0  0
 16 17  2  0  0  0
 17 18  1  0  0  0
 18 19  2  0  0  0
 19 20  1  0  0  0
 20 21  1  0  0  0
 21 22  1  0  0  0
 22 23  1  0  0  0
 19 24  1  0  0  0
  2  5  1  0  0  0
  5  6  1  0  0  0
  6  7  2  0  0  0
  7  8  1  0  0  0
  8  9  2  0  0  0
  9 10  1  0  0  0
 10 11  2  0  0  0
 11 12  1  0  0  0
 12 13  2  0  0  0
 13 14  1  0  0  0
 24 16  1  0  0  0
 14  5  2  0  0  0
 23 18  1  0  0  0
 13  8  1  0  0  0
  3  4  1  0  0  0
 24 25  1  0  0  0
M  END
> <minimizedAffinity>
-9.89816

$$$$
OCNT-2312410


 28 31  0  0  0  0  0  0  0  0999 V2000
   -3.9948   28.6636    7.2098 C   0  0  0  0  0  0  0  0  0  0  0  0
   -4.4500   33.7460    9.3033 C   0  0  0  0  0  0  0  0  0  0  0  0
   -4.1733   32.8917    8.1522 N   0  0  0  0  0  0  0  0  0  0  0  0
   -5.2822   31.9574    7.8790 C   0  0  0  0  0  0  0  0  0  0  0  0
   -5.0826   30.5231    8.4225 C   0  0  0  0  0  0  0  0  0  0  0  0
   -3.8193   29.8671    8.0396 N   0  0  0  0  0  0  0  0  0  0  0  0
   -2.8106   30.8315    7.5401 C   0  0  0  0  0  0  0  0  0  0  0  0
   -2.8903   32.1739    8.3340 C   0  0  0  0  0  0  0  0  0  0  0  0
   -1.3935   30.2750    7.6182 C   0  0  0  0  0  0  0  0  0  0  0  0
   -0.6931   29.8940    6.4618 C   0  0  0  0  0  0  0  0  0  0  0  0
    0.5990   29.3739    6.5503 C   0  0  0  0  0  0  0  0  0  0  0  0
    1.2062   29.2236    7.7951 C   0  0  0  0  0  0  0  0  0  0  0  0
    0.5225   29.5921    8.9518 C   0  0  0  0  0  0  0  0  0  0  0  0
   -0.7699   30.1133    8.8655 C   0  0  0  0  0  0  0  0  0  0  0  0
   -4.9796   28.6946    6.0171 C   0  0  0  0  0  0  0  0  0  0  0  0
   -5.9682   27.6150    6.0770 N   0  0  0  0  0  0  0  0  0  0  0  0
   -6.9149   27.9854    6.1696 H   0  0  0  0  0  0  0  0  0  0  0  0
   -6.0146   26.7592    4.9775 C   0  0  0  0  0  0  0  0  0  0  0  0
   -5.6845   27.1719    3.6962 C   0  0  0  0  0  0  0  0  0  0  0  0
   -5.7267   26.2589    2.6412 C   0  0  0  0  0  0  0  0  0  0  0  0
   -6.0962   24.9517    2.9134 C   0  0  0  0  0  0  0  0  0  0  0  0
   -6.4043   24.5671    4.1701 N   0  0  0  0  0  0  0  0  0  0  0  0
   -6.3529   25.4759    5.2026 N   0  0  0  0  0  0  0  0  0  0  0  0
   -6.1619   23.9740    1.8910 N   0  0  0  0  0  0  0  0  0  0  0  0
   -6.6533   24.0951    0.6090 C   0  0  0  0  0  0  0  0  0  0  0  0
   -6.4880   22.8598    0.0262 C   0  0  0  0  0  0  0  0  0  0  0  0
   -5.9135   21.9820    0.9007 N   0  0  0  0  0  0  0  0  0  0  0  0
   -5.7280   22.6718    2.0054 C   0  0  0  0  0  0  0  0  0  0  0  0
  2  3  1  0  0  0
  3  4  1  0  0  0
  4  5  1  0  0  0
  5  6  1  0  0  0
  6  1  1  0  0  0
  1 15  1  0  0  0
 15 16  1  0  0  0
 16 18  1  0  0  0
 18 19  2  0  0  0
 19 20  1  0  0  0
 20 21  2  0  0  0
 21 24  1  0  0  0
 24 25  1  0  0  0
 25 26  2  0  0  0
 26 27  1  0  0  0
 27 28  2  0  0  0
 21 22  1  0  0  0
 22 23  2  0  0  0
  6  7  1  0  0  0
  7  9  1  0  0  0
  9 10  2  0  0  0
 10 11  1  0  0  0
 11 12  2  0  0  0
 12 13  1  0  0  0
 13 14  2  0  0  0
  7  8  1  0  0  0
  8  3  1  0  0  0
 23 18  1  0  0  0
 14  9  1  0  0  0
 28 24  1  0  0  0
 16 17  1  0  0  0
M  END
> <minimizedAffinity>
-9.56491

$$$$
OCNT-2312411


 24 26  0  0  0  0  0  0  0  0999 V2000
   -2.2764   32.0591   10.1233 O   0  0  0  0  0  0  0  0  0  0  0  0
   -2.5177   31.5016    9.0546 C   0  0  0  0  0  0  0  0  0  0  0  0
   -1.5322   30.5670    8.4906 C   0  0  0  0  0  0  0  0  0  0  0  0
   -0.2774   30.3873    9.0857 C   0  0  0  0  0  0  0  0  0  0  0  0
    0.6257   29.4832    8.5284 C   0  0  0  0  0  0  0  0  0  0  0  0
    0.2712   28.7647    7.3871 C   0  0  0  0  0  0  0  0  0  0  0  0
   -0.9860   28.9508    6.8049 C   0  0  0  0  0  0  0  0  0  0  0  0
   -1.8990   29.8550    7.3537 C   0  0  0  0  0  0  0  0  0  0  0  0
   -3.1466   30.0109    6.7421 N   0  0  0  0  0  0  0  0  0  0  0  0
   -3.9736   30.8948    7.2161 C   0  0  0  0  0  0  0  0  0  0  0  0
   -3.6996   31.6650    8.3350 N   0  0  0  0  0  0  0  0  0  0  0  0
   -5.1748   31.0083    6.5624 N   0  0  0  0  0  0  0  0  0  0  0  0
   -5.5802   31.8876    6.8856 H   0  0  0  0  0  0  0  0  0  0  0  0
   -6.1927   29.9762    6.8108 C   0  0  0  0  0  0  0  0  0  0  0  0
   -6.3180   29.0188    5.6121 C   0  0  0  0  0  0  0  0  0  0  0  0
   -5.8996   29.6822    4.2970 C   0  0  0  0  0  0  0  0  0  0  0  0
   -6.0831   28.7218    3.1224 C   0  0  0  0  0  0  0  0  0  0  0  0
   -5.9560   27.2623    3.5503 C   0  0  0  0  0  0  0  0  0  0  0  0
   -5.0463   27.1364    4.7613 C   0  0  0  0  0  0  0  0  0  0  0  0
   -5.5281   27.8532    5.8987 O   0  0  0  0  0  0  0  0  0  0  0  0
   -4.7213   32.5143    8.9451 C   0  0  0  0  0  0  0  0  0  0  0  0
   -4.6466   33.9550    8.4386 C   0  0  0  0  0  0  0  0  0  0  0  0
   -5.3485   34.0714    7.2035 O   0  0  0  0  0  0  0  0  0  0  0  0
   -5.1964   34.9762    6.8797 H   0  0  0  0  0  0  0  0  0  0  0  0
  1  2  2  0  0  0
  2  3  1  0  0  0
  3  4  2  0  0  0
  4  5  1  0  0  0
  5  6  2  0  0  0
  6  7  1  0  0  0
  7  8  2  0  0  0
  8  9  1  0  0  0
  9 10  2  0  0  0
 10 12  1  0  0  0
 12 14  1  0  0  0
 14 15  1  0  0  0
 15 16  1  0  0  0
 16 17  1  0  0  0
 17 18  1  0  0  0
 18 19  1  0  0  0
 19 20  1  0  0  0
 10 11  1  0  0  0
 11 21  1  0  0  0
 21 22  1  0  0  0
 22 23  1  0  0  0
 11  2  1  0  0  0
  8  3  1  0  0  0
 20 15  1  0  0  0
 12 13  1  0  0  0
 23 24  1  0  0  0
M  END
> <minimizedAffinity>
-8.84223

$$$$
OCNT-2312415


 23 25  0  0  0  0  0  0  0  0999 V2000
   -5.7900   29.8022    7.6303 C   0  0  0  0  0  0  0  0  0  0  0  0
   -5.2323   31.0925    7.9526 N   0  0  0  0  0  0  0  0  0  0  0  0
   -6.0362   32.1628    8.0787 N   0  0  0  0  0  0  0  0  0  0  0  0
   -5.2165   33.1956    8.1981 N   0  0  0  0  0  0  0  0  0  0  0  0
   -3.9048   32.7933    8.1416 N   0  0  0  0  0  0  0  0  0  0  0  0
   -3.9141   31.4810    8.0292 C   0  0  0  0  0  0  0  0  0  0  0  0
   -2.8608   30.6199    7.9066 N   0  0  0  0  0  0  0  0  0  0  0  0
   -1.9720   30.8811    6.7495 C   0  0  0  0  0  0  0  0  0  0  0  0
   -0.7802   29.9137    6.7791 C   0  0  0  0  0  0  0  0  0  0  0  0
    0.0379   30.0399    7.9535 O   0  0  0  0  0  0  0  0  0  0  0  0
   -0.6419   30.6605    9.0529 C   0  0  0  0  0  0  0  0  0  0  0  0
   -2.1238   30.2639    9.1434 C   0  0  0  0  0  0  0  0  0  0  0  0
   -6.7539   29.8809    6.4498 C   0  0  0  0  0  0  0  0  0  0  0  0
   -5.8380   26.9327    3.4169 C   0  0  0  0  0  0  0  0  0  0  0  0
   -5.8760   28.2976    3.0967 C   0  0  0  0  0  0  0  0  0  0  0  0
   -6.1671   29.2498    4.0763 C   0  0  0  0  0  0  0  0  0  0  0  0
   -6.4155   28.8552    5.3965 C   0  0  0  0  0  0  0  0  0  0  0  0
   -6.3740   27.4938    5.7213 C   0  0  0  0  0  0  0  0  0  0  0  0
   -6.0827   26.5419    4.7416 C   0  0  0  0  0  0  0  0  0  0  0  0
   -5.8738   24.6417    2.7098 F   0  0  0  0  0  0  0  0  0  0  0  0
   -5.4999   25.9055    2.3643 C   0  0  0  0  0  0  0  0  0  0  0  0
   -6.1071   26.1637    1.1736 F   0  0  0  0  0  0  0  0  0  0  0  0
   -4.1654   25.8359    2.0968 F   0  0  0  0  0  0  0  0  0  0  0  0
 20 21  1  0  0  0
 21 22  1  0  0  0
 21 23  1  0  0  0
 21 14  1  0  0  0
 14 15  1  0  0  0
 15 16  2  0  0  0
 16 17  1  0  0  0
 17 13  1  0  0  0
 13  1  1  0  0  0
  1  2  1  0  0  0
  2  3  1  0  0  0
  3  4  2  0  0  0
  4  5  1  0  0  0
  5  6  2  0  0  0
  6  7  1  0  0  0
  7  8  1  0  0  0
  8  9  1  0  0  0
  9 10  1  0  0  0
 10 11  1  0  0  0
 11 12  1  0  0  0
 17 18  2  0  0  0
 18 19  1  0  0  0
 19 14  2  0  0  0
  6  2  1  0  0  0
 12  7  1  0  0  0
M  END
> <minimizedAffinity>
-8.57366

$$$$
OCNT-2312429


 24 26  0  0  0  0  0  0  0  0999 V2000
   -5.6700   29.5367    7.9398 C   0  0  0  0  0  0  0  0  0  0  0  0
   -4.3504   28.9005    7.9325 N   0  0  0  0  0  0  0  0  0  0  0  0
   -4.4025   27.9318    8.2394 H   0  0  0  0  0  0  0  0  0  0  0  0
   -3.1726   29.5175    8.3054 C   0  0  0  0  0  0  0  0  0  0  0  0
   -3.1866   30.4753    9.2007 N   0  0  0  0  0  0  0  0  0  0  0  0
   -2.0115   31.0994    9.5552 C   0  0  0  0  0  0  0  0  0  0  0  0
   -0.8179   30.7804    9.0410 C   0  0  0  0  0  0  0  0  0  0  0  0
   -0.7522   29.7677    8.1050 N   0  0  0  0  0  0  0  0  0  0  0  0
    0.3451   29.2753    7.4728 N   0  0  0  0  0  0  0  0  0  0  0  0
   -0.1333   28.3004    6.6954 C   0  0  0  0  0  0  0  0  0  0  0  0
   -1.5195   28.1600    6.8185 C   0  0  0  0  0  0  0  0  0  0  0  0
   -2.5372   26.8858    5.9073 Br  0  0  0  0  0  0  0  0  0  0  0  0
   -1.9076   29.1153    7.7213 C   0  0  0  0  0  0  0  0  0  0  0  0
   -6.1282   29.9697    9.3395 C   0  0  0  0  0  0  0  0  0  0  0  0
   -5.4793   27.9955   10.5739 O   0  0  0  0  0  0  0  0  0  0  0  0
   -6.5934   28.8012   10.2001 C   0  0  0  0  0  0  0  0  0  0  0  0
   -5.0564   27.6755    9.7599 H   0  0  0  0  0  0  0  0  0  0  0  0
   -6.7333   28.6596    7.2421 C   0  0  0  0  0  0  0  0  0  0  0  0
   -6.4514   28.4525    5.7691 C   0  0  0  0  0  0  0  0  0  0  0  0
   -6.3787   29.5450    4.8944 C   0  0  0  0  0  0  0  0  0  0  0  0
   -6.0783   29.3504    3.5454 C   0  0  0  0  0  0  0  0  0  0  0  0
   -5.8485   28.0648    3.0587 C   0  0  0  0  0  0  0  0  0  0  0  0
   -5.9236   26.9714    3.9187 C   0  0  0  0  0  0  0  0  0  0  0  0
   -6.2257   27.1632    5.2671 C   0  0  0  0  0  0  0  0  0  0  0  0
 15 16  1  0  0  0
 16 14  1  0  0  0
 14  1  1  0  0  0
  1 18  1  0  0  0
 18 19  1  0  0  0
 19 20  2  0  0  0
 20 21  1  0  0  0
 21 22  2  0  0  0
 22 23  1  0  0  0
 23 24  2  0  0  0
  1  2  1  0  0  0
  2  4  1  0  0  0
  4  5  2  0  0  0
  5  6  1  0  0  0
  6  7  2  0  0  0
  7  8  1  0  0  0
  8  9  1  0  0  0
  9 10  2  0  0  0
 10 11  1  0  0  0
 11 12  1  0  0  0
 11 13  2  0  0  0
 24 19  1  0  0  0
 13  4  1  0  0  0
 13  8  1  0  0  0
 15 17  1  0  0  0
  2  3  1  0  0  0
M  END
> <minimizedAffinity>
-8.70586

$$$$
OCNT-2312433


 32 34  0  0  0  0  0  0  0  0999 V2000
    0.4854   29.1687    7.2629 S   0  0  0  0  0  0  0  0  0  0  0  0
    0.8790   29.4244    5.8941 O   0  0  0  0  0  0  0  0  0  0  0  0
    1.4368   29.3046    8.3463 O   0  0  0  0  0  0  0  0  0  0  0  0
   -3.1372   31.7672    8.2667 C   0  0  0  0  0  0  0  0  0  0  0  0
   -2.5211   30.9963    9.2644 C   0  0  0  0  0  0  0  0  0  0  0  0
   -1.4140   30.2022    8.9631 C   0  0  0  0  0  0  0  0  0  0  0  0
   -0.9127   30.1872    7.6595 C   0  0  0  0  0  0  0  0  0  0  0  0
   -1.5206   30.9403    6.6524 C   0  0  0  0  0  0  0  0  0  0  0  0
   -2.6281   31.7321    6.9596 C   0  0  0  0  0  0  0  0  0  0  0  0
   -4.3486   32.6117    8.5944 C   0  0  0  0  0  0  0  0  0  0  0  0
   -5.6248   31.7911    8.7993 C   0  0  0  0  0  0  0  0  0  0  0  0
   -6.8858   29.5586    6.0186 C   0  0  0  0  0  0  0  0  0  0  0  0
   -6.1202   29.9444    7.2557 C   0  0  0  0  0  0  0  0  0  0  0  0
   -5.5151   29.1198    7.9321 O   0  0  0  0  0  0  0  0  0  0  0  0
   -6.1743   31.2885    7.5521 N   0  0  0  0  0  0  0  0  0  0  0  0
   -6.9303   31.8202    7.1371 H   0  0  0  0  0  0  0  0  0  0  0  0
   -0.1456   27.6044    7.3895 N   0  0  0  0  0  0  0  0  0  0  0  0
    0.5866   26.9437    7.6475 H   0  0  0  0  0  0  0  0  0  0  0  0
   -1.0851   27.1875    6.4087 C   0  0  0  0  0  0  0  0  0  0  0  0
   -0.6567   26.4370    5.3176 C   0  0  0  0  0  0  0  0  0  0  0  0
   -1.5853   25.9880    4.3741 C   0  0  0  0  0  0  0  0  0  0  0  0
   -2.9539   26.2739    4.5124 C   0  0  0  0  0  0  0  0  0  0  0  0
   -3.3630   27.0271    5.6259 C   0  0  0  0  0  0  0  0  0  0  0  0
   -2.4366   27.4796    6.5704 C   0  0  0  0  0  0  0  0  0  0  0  0
   -3.9313   25.7921    3.5232 C   0  0  0  0  0  0  0  0  0  0  0  0
   -4.8836   26.6632    2.9653 C   0  0  0  0  0  0  0  0  0  0  0  0
   -5.8134   26.2084    2.0258 C   0  0  0  0  0  0  0  0  0  0  0  0
   -5.8037   24.8743    1.6281 C   0  0  0  0  0  0  0  0  0  0  0  0
   -4.8667   24.0051    2.1706 C   0  0  0  0  0  0  0  0  0  0  0  0
   -4.8889   22.7072    1.7513 O   0  0  0  0  0  0  0  0  0  0  0  0
   -3.9368   24.4486    3.1094 C   0  0  0  0  0  0  0  0  0  0  0  0
   -4.1768   22.2227    2.2003 H   0  0  0  0  0  0  0  0  0  0  0  0
 12 13  1  0  0  0
 13 14  2  0  0  0
 13 15  1  0  0  0
 15 11  1  0  0  0
 11 10  1  0  0  0
 10  4  1  0  0  0
  4  5  1  0  0  0
  5  6  2  0  0  0
  6  7  1  0  0  0
  7  1  1  0  0  0
  1  2  2  0  0  0
  1  3  2  0  0  0
  1 17  1  0  0  0
 17 19  1  0  0  0
 19 20  1  0  0  0
 20 21  2  0  0  0
 21 22  1  0  0  0
 22 25  1  0  0  0
 25 26  2  0  0  0
 26 27  1  0  0  0
 27 28  2  0  0  0
 28 29  1  0  0  0
 29 30  1  0  0  0
 29 31  2  0  0  0
 22 23  2  0  0  0
 23 24  1  0  0  0
  7  8  2  0  0  0
  8  9  1  0  0  0
  9  4  2  0  0  0
 24 19  2  0  0  0
 31 25  1  0  0  0
 15 16  1  0  0  0
 17 18  1  0  0  0
 30 32  1  0  0  0
M  END
> <minimizedAffinity>
-10.44425

$$$$
OCNT-2312442


 29 31  0  0  0  0  0  0  0  0999 V2000
   -3.8341   29.7737    6.0622 N   0  0  0  0  0  0  0  0  0  0  0  0
   -3.4872   29.1445    7.2371 C   0  0  0  0  0  0  0  0  0  0  0  0
   -4.3005   28.9159    8.1268 O   0  0  0  0  0  0  0  0  0  0  0  0
   -3.1993   29.7802    5.2727 H   0  0  0  0  0  0  0  0  0  0  0  0
   -2.0977   28.7143    7.3370 C   0  0  0  0  0  0  0  0  0  0  0  0
   -1.5858   27.5353    6.8143 C   0  0  0  0  0  0  0  0  0  0  0  0
   -2.2259   26.4389    6.0462 C   0  0  0  0  0  0  0  0  0  0  0  0
   -0.2633   27.5106    7.1436 N   0  0  0  0  0  0  0  0  0  0  0  0
    0.1346   28.5771    7.8478 N   0  0  0  0  0  0  0  0  0  0  0  0
   -0.9828   29.3175    8.0026 C   0  0  0  0  0  0  0  0  0  0  0  0
    0.4239   26.7947    6.9249 H   0  0  0  0  0  0  0  0  0  0  0  0
   -0.9976   30.5925    8.8021 C   0  0  0  0  0  0  0  0  0  0  0  0
   -1.1760   31.6869    8.0140 F   0  0  0  0  0  0  0  0  0  0  0  0
    0.1934   30.7754    9.4466 F   0  0  0  0  0  0  0  0  0  0  0  0
   -1.9617   30.6372    9.7587 F   0  0  0  0  0  0  0  0  0  0  0  0
   -5.1907   30.2435    5.8237 C   0  0  0  0  0  0  0  0  0  0  0  0
   -5.7974   29.6713    4.5401 C   0  0  0  0  0  0  0  0  0  0  0  0
   -5.9976   26.1808    3.8723 C   0  0  0  0  0  0  0  0  0  0  0  0
   -5.7619   27.4127    3.4567 N   0  0  0  0  0  0  0  0  0  0  0  0
   -5.9504   28.1929    4.5753 C   0  0  0  0  0  0  0  0  0  0  0  0
   -6.2941   27.3872    5.6361 C   0  0  0  0  0  0  0  0  0  0  0  0
   -6.3215   26.0979    5.2030 O   0  0  0  0  0  0  0  0  0  0  0  0
   -5.8872   21.1713    0.9768 C   0  0  0  0  0  0  0  0  0  0  0  0
   -5.9323   22.4829    1.7037 C   0  0  0  0  0  0  0  0  0  0  0  0
   -5.1308   23.5519    1.2910 C   0  0  0  0  0  0  0  0  0  0  0  0
   -5.1491   24.7643    1.9893 C   0  0  0  0  0  0  0  0  0  0  0  0
   -5.9608   24.9294    3.1204 C   0  0  0  0  0  0  0  0  0  0  0  0
   -6.7514   23.8485    3.5354 C   0  0  0  0  0  0  0  0  0  0  0  0
   -6.7341   22.6362    2.8388 C   0  0  0  0  0  0  0  0  0  0  0  0
 23 24  1  0  0  0
 24 25  1  0  0  0
 25 26  2  0  0  0
 26 27  1  0  0  0
 27 18  1  0  0  0
 18 19  2  0  0  0
 19 20  1  0  0  0
 20 17  1  0  0  0
 17 16  1  0  0  0
 16  1  1  0  0  0
  1  2  1  0  0  0
  2  3  2  0  0  0
  2  5  1  0  0  0
  5  6  2  0  0  0
  6  7  1  0  0  0
  6  8  1  0  0  0
  8  9  1  0  0  0
  9 10  2  0  0  0
 10 12  1  0  0  0
 12 13  1  0  0  0
 12 14  1  0  0  0
 12 15  1  0  0  0
 20 21  2  0  0  0
 21 22  1  0  0  0
 27 28  2  0  0  0
 28 29  1  0  0  0
 29 24  2  0  0  0
 22 18  1  0  0  0
 10  5  1  0  0  0
  1  4  1  0  0  0
  8 11  1  0  0  0
M  END
> <minimizedAffinity>
-9.55790

$$$$
OCNT-2312448


 24 26  0  0  0  0  0  0  0  0999 V2000
   -6.5866   29.6368    6.3505 C   0  0  0  0  0  0  0  0  0  0  0  0
   -5.3695   30.1281    6.9905 N   0  0  0  0  0  0  0  0  0  0  0  0
   -4.3972   30.6971    6.0541 C   0  0  0  0  0  0  0  0  0  0  0  0
   -3.1061   30.7764    6.8806 C   0  0  0  0  0  0  0  0  0  0  0  0
   -2.8360   32.2068    7.3728 C   0  0  0  0  0  0  0  0  0  0  0  0
   -1.7982   32.2137    8.4875 C   0  0  0  0  0  0  0  0  0  0  0  0
   -2.2460   31.3992    9.7010 C   0  0  0  0  0  0  0  0  0  0  0  0
   -3.4233   30.4697    9.4048 C   0  0  0  0  0  0  0  0  0  0  0  0
   -3.3005   29.7513    8.0375 C   0  0  0  0  0  0  0  0  0  0  0  0
   -4.6345   29.0678    7.6833 C   0  0  0  0  0  0  0  0  0  0  0  0
   -2.1539   28.7209    8.0558 C   0  0  0  0  0  0  0  0  0  0  0  0
   -2.6128   27.4121    8.3690 O   0  0  0  0  0  0  0  0  0  0  0  0
   -3.1490   27.0890    7.6263 H   0  0  0  0  0  0  0  0  0  0  0  0
   -5.9454   29.3385    3.1345 C   0  0  0  0  0  0  0  0  0  0  0  0
   -6.0447   28.2751    4.1666 C   0  0  0  0  0  0  0  0  0  0  0  0
   -6.3095   28.4330    5.5161 C   0  0  0  0  0  0  0  0  0  0  0  0
   -6.2877   27.1769    6.0486 N   0  0  0  0  0  0  0  0  0  0  0  0
   -6.0248   26.2124    5.1571 N   0  0  0  0  0  0  0  0  0  0  0  0
   -5.8603   26.8670    3.9896 C   0  0  0  0  0  0  0  0  0  0  0  0
   -6.4404   26.9038    7.0139 H   0  0  0  0  0  0  0  0  0  0  0  0
   -5.5324   26.1627    2.6956 C   0  0  0  0  0  0  0  0  0  0  0  0
   -4.2115   26.2756    2.3827 F   0  0  0  0  0  0  0  0  0  0  0  0
   -6.2271   26.6306    1.6241 F   0  0  0  0  0  0  0  0  0  0  0  0
   -5.7924   24.8270    2.7693 F   0  0  0  0  0  0  0  0  0  0  0  0
 14 15  1  0  0  0
 15 16  2  0  0  0
 16  1  1  0  0  0
  1  2  1  0  0  0
  2  3  1  0  0  0
  3  4  1  0  0  0
  4  5  1  0  0  0
  5  6  1  0  0  0
  6  7  1  0  0  0
  7  8  1  0  0  0
  8  9  1  0  0  0
  9 11  1  0  0  0
 11 12  1  0  0  0
  9 10  1  0  0  0
 16 17  1  0  0  0
 17 18  1  0  0  0
 18 19  2  0  0  0
 19 21  1  0  0  0
 21 22  1  0  0  0
 21 23  1  0  0  0
 21 24  1  0  0  0
 19 15  1  0  0  0
 10  2  1  0  0  0
  9  4  1  0  0  0
 12 13  1  0  0  0
 17 20  1  0  0  0
M  END
> <minimizedAffinity>
-8.92790

$$$$
OCNT-2312463


 25 28  0  0  0  0  0  0  0  0999 V2000
   -3.2925   29.1819    7.2321 C   0  0  0  0  0  0  0  0  0  0  0  0
   -1.8570   31.8973    7.5754 C   0  0  0  0  0  0  0  0  0  0  0  0
   -1.3404   30.6288    8.0281 N   0  0  0  0  0  0  0  0  0  0  0  0
   -0.1472   30.4428    8.6691 C   0  0  0  0  0  0  0  0  0  0  0  0
   -0.0719   29.0922    8.9062 C   0  0  0  0  0  0  0  0  0  0  0  0
   -1.1860   28.4538    8.4319 N   0  0  0  0  0  0  0  0  0  0  0  0
   -1.9466   29.4000    7.8981 C   0  0  0  0  0  0  0  0  0  0  0  0
   -4.4509   29.7455    8.0552 C   0  0  0  0  0  0  0  0  0  0  0  0
   -4.8144   29.1178    9.2600 C   0  0  0  0  0  0  0  0  0  0  0  0
   -5.8571   29.6197   10.0410 C   0  0  0  0  0  0  0  0  0  0  0  0
   -6.5442   30.7619    9.6368 C   0  0  0  0  0  0  0  0  0  0  0  0
   -6.1846   31.4087    8.4566 C   0  0  0  0  0  0  0  0  0  0  0  0
   -5.1414   30.9096    7.6742 C   0  0  0  0  0  0  0  0  0  0  0  0
   -3.5704   27.7719    6.9898 N   0  0  0  0  0  0  0  0  0  0  0  0
   -3.2642   27.2259    7.7901 H   0  0  0  0  0  0  0  0  0  0  0  0
   -3.2582   27.1928    5.7812 C   0  0  0  0  0  0  0  0  0  0  0  0
   -2.0321   26.7661    5.5694 N   0  0  0  0  0  0  0  0  0  0  0  0
   -1.7129   26.1952    4.3566 C   0  0  0  0  0  0  0  0  0  0  0  0
   -2.5860   26.0444    3.3532 C   0  0  0  0  0  0  0  0  0  0  0  0
   -3.8837   26.4805    3.5338 N   0  0  0  0  0  0  0  0  0  0  0  0
   -4.9200   26.4259    2.6563 N   0  0  0  0  0  0  0  0  0  0  0  0
   -5.9431   26.9661    3.3246 C   0  0  0  0  0  0  0  0  0  0  0  0
   -5.5777   27.3705    4.6130 C   0  0  0  0  0  0  0  0  0  0  0  0
   -6.7404   28.1616    5.8424 Br  0  0  0  0  0  0  0  0  0  0  0  0
   -4.2497   27.0564    4.7338 C   0  0  0  0  0  0  0  0  0  0  0  0
  2  3  1  0  0  0
  3  4  1  0  0  0
  4  5  2  0  0  0
  5  6  1  0  0  0
  6  7  2  0  0  0
  7  1  1  0  0  0
  1 14  1  0  0  0
 14 16  1  0  0  0
 16 17  2  0  0  0
 17 18  1  0  0  0
 18 19  2  0  0  0
 19 20  1  0  0  0
 20 21  1  0  0  0
 21 22  2  0  0  0
 22 23  1  0  0  0
 23 24  1  0  0  0
 23 25  2  0  0  0
  1  8  1  0  0  0
  8  9  2  0  0  0
  9 10  1  0  0  0
 10 11  2  0  0  0
 11 12  1  0  0  0
 12 13  2  0  0  0
  7  3  1  0  0  0
 25 16  1  0  0  0
 13  8  1  0  0  0
 25 20  1  0  0  0
 14 15  1  0  0  0
M  END
> <minimizedAffinity>
-8.29555

$$$$
OCNT-2312465


 24 26  0  0  0  0  0  0  0  0999 V2000
   -0.3439   27.6767    7.4904 N   0  0  0  0  0  0  0  0  0  0  0  0
    0.2836   26.9700    7.8770 H   0  0  0  0  0  0  0  0  0  0  0  0
   -3.8097   25.3651    2.3477 C   0  0  0  0  0  0  0  0  0  0  0  0
   -3.8734   26.1436    3.5506 N   0  0  0  0  0  0  0  0  0  0  0  0
   -4.9957   26.7578    4.0691 C   0  0  0  0  0  0  0  0  0  0  0  0
   -6.1186   26.7414    3.5842 O   0  0  0  0  0  0  0  0  0  0  0  0
   -4.6900   27.4321    5.2617 O   0  0  0  0  0  0  0  0  0  0  0  0
   -3.3353   27.1809    5.4122 C   0  0  0  0  0  0  0  0  0  0  0  0
   -2.5486   27.6323    6.4506 C   0  0  0  0  0  0  0  0  0  0  0  0
   -1.1980   27.2760    6.4257 C   0  0  0  0  0  0  0  0  0  0  0  0
   -0.6748   26.4778    5.3884 C   0  0  0  0  0  0  0  0  0  0  0  0
   -1.4953   26.0323    4.3465 C   0  0  0  0  0  0  0  0  0  0  0  0
   -2.8208   26.4046    4.3930 C   0  0  0  0  0  0  0  0  0  0  0  0
    0.4687   29.1536    7.3353 S   0  0  0  0  0  0  0  0  0  0  0  0
    0.8218   29.3673    5.9496 O   0  0  0  0  0  0  0  0  0  0  0  0
    1.4698   29.1754    8.3797 O   0  0  0  0  0  0  0  0  0  0  0  0
   -0.7822   30.3271    7.7912 C   0  0  0  0  0  0  0  0  0  0  0  0
   -1.5651   30.9353    6.8028 C   0  0  0  0  0  0  0  0  0  0  0  0
   -2.5412   31.8648    7.1720 C   0  0  0  0  0  0  0  0  0  0  0  0
   -2.7223   32.1839    8.5196 C   0  0  0  0  0  0  0  0  0  0  0  0
   -3.9337   33.3234    8.9618 Cl  0  0  0  0  0  0  0  0  0  0  0  0
   -1.9253   31.5785    9.4925 C   0  0  0  0  0  0  0  0  0  0  0  0
   -2.0879   31.8748   10.7902 F   0  0  0  0  0  0  0  0  0  0  0  0
   -0.9496   30.6526    9.1393 C   0  0  0  0  0  0  0  0  0  0  0  0
  3  4  1  0  0  0
  4  5  1  0  0  0
  5  6  2  0  0  0
  5  7  1  0  0  0
  7  8  1  0  0  0
  8  9  1  0  0  0
  9 10  2  0  0  0
 10  1  1  0  0  0
  1 14  1  0  0  0
 14 15  2  0  0  0
 14 16  2  0  0  0
 14 17  1  0  0  0
 17 18  1  0  0  0
 18 19  2  0  0  0
 19 20  1  0  0  0
 20 21  1  0  0  0
 20 22  2  0  0  0
 22 23  1  0  0  0
 22 24  1  0  0  0
 10 11  1  0  0  0
 11 12  2  0  0  0
 12 13  1  0  0  0
 13  4  1  0  0  0
 13  8  2  0  0  0
 24 17  2  0  0  0
  1  2  1  0  0  0
M  END
> <minimizedAffinity>
-9.86658

$$$$
OCNT-2312472


 25 28  0  0  0  0  0  0  0  0999 V2000
   -5.1163   26.4935    3.1289 C   0  0  0  0  0  0  0  0  0  0  0  0
   -5.4276   26.4705    4.6729 C   0  0  0  0  0  0  0  0  0  0  0  0
   -5.6428   27.8983    4.5839 N   0  0  0  0  0  0  0  0  0  0  0  0
   -5.3664   28.9467    5.4113 C   0  0  0  0  0  0  0  0  0  0  0  0
   -5.4088   30.1153    5.0189 O   0  0  0  0  0  0  0  0  0  0  0  0
   -5.7971   27.9091    3.1421 C   0  0  0  0  0  0  0  0  0  0  0  0
   -5.8432   25.3133    2.2897 C   0  0  0  0  0  0  0  0  0  0  0  0
   -6.3438   24.1669    2.9416 C   0  0  0  0  0  0  0  0  0  0  0  0
   -6.9491   23.1144    2.2442 C   0  0  0  0  0  0  0  0  0  0  0  0
   -7.0748   23.1754    0.8622 C   0  0  0  0  0  0  0  0  0  0  0  0
   -6.5939   24.2864    0.1819 C   0  0  0  0  0  0  0  0  0  0  0  0
   -5.9835   25.3355    0.8868 C   0  0  0  0  0  0  0  0  0  0  0  0
   -2.8763   25.5692    3.5559 C   0  0  0  0  0  0  0  0  0  0  0  0
   -3.6696   26.5178    2.8641 O   0  0  0  0  0  0  0  0  0  0  0  0
   -5.0384   28.6121    6.8574 C   0  0  0  0  0  0  0  0  0  0  0  0
   -3.5635   28.5272    7.0461 C   0  0  0  0  0  0  0  0  0  0  0  0
   -2.6460   27.6366    6.5259 C   0  0  0  0  0  0  0  0  0  0  0  0
   -1.3771   27.9190    6.9489 N   0  0  0  0  0  0  0  0  0  0  0  0
   -1.4930   28.9741    7.7317 C   0  0  0  0  0  0  0  0  0  0  0  0
   -0.4915   29.7092    8.4595 C   0  0  0  0  0  0  0  0  0  0  0  0
    0.9646   29.3248    8.4325 C   0  0  0  0  0  0  0  0  0  0  0  0
   -0.9005   30.7760    9.1914 C   0  0  0  0  0  0  0  0  0  0  0  0
   -2.2920   31.1888    9.2681 C   0  0  0  0  0  0  0  0  0  0  0  0
   -3.2172   30.4938    8.5887 C   0  0  0  0  0  0  0  0  0  0  0  0
   -2.8204   29.3945    7.8264 N   0  0  0  0  0  0  0  0  0  0  0  0
 13 14  1  0  0  0
 14  1  1  0  0  0
  1  7  1  0  0  0
  7  8  2  0  0  0
  8  9  1  0  0  0
  9 10  2  0  0  0
 10 11  1  0  0  0
 11 12  2  0  0  0
  1  2  1  0  0  0
  2  3  1  0  0  0
  3  4  1  0  0  0
  4  5  2  0  0  0
  4 15  1  0  0  0
 15 16  1  0  0  0
 16 17  2  0  0  0
 17 18  1  0  0  0
 18 19  2  0  0  0
 19 20  1  0  0  0
 20 21  1  0  0  0
 20 22  2  0  0  0
 22 23  1  0  0  0
 23 24  2  0  0  0
 24 25  1  0  0  0
  3  6  1  0  0  0
  6  1  1  0  0  0
 12  7  1  0  0  0
 25 16  1  0  0  0
 25 19  1  0  0  0
M  END
> <minimizedAffinity>
-9.68405

$$$$
OCNT-2312476


 26 29  0  0  0  0  0  0  0  0999 V2000
   -2.5789   26.3773    4.9054 C   0  0  0  0  0  0  0  0  0  0  0  0
   -5.0163   25.3469    2.3063 C   0  0  0  0  0  0  0  0  0  0  0  0
   -3.9255   25.0348    3.0940 C   0  0  0  0  0  0  0  0  0  0  0  0
   -3.6687   26.1841    3.8818 C   0  0  0  0  0  0  0  0  0  0  0  0
   -4.5619   27.1524    3.6295 N   0  0  0  0  0  0  0  0  0  0  0  0
   -5.3527   26.6222    2.6818 N   0  0  0  0  0  0  0  0  0  0  0  0
   -6.1245   27.1819    2.3392 H   0  0  0  0  0  0  0  0  0  0  0  0
   -7.1262   23.0550   -0.6215 C   0  0  0  0  0  0  0  0  0  0  0  0
   -7.1199   24.4454   -0.7012 C   0  0  0  0  0  0  0  0  0  0  0  0
   -6.4303   25.1999    0.2528 C   0  0  0  0  0  0  0  0  0  0  0  0
   -5.7398   24.5721    1.2998 C   0  0  0  0  0  0  0  0  0  0  0  0
   -5.7494   23.1714    1.3613 C   0  0  0  0  0  0  0  0  0  0  0  0
   -6.4399   22.4174    0.4086 C   0  0  0  0  0  0  0  0  0  0  0  0
   -2.9573   26.7789    6.2692 N   0  0  0  0  0  0  0  0  0  0  0  0
   -3.0638   25.9458    6.8653 H   0  0  0  0  0  0  0  0  0  0  0  0
   -2.1474   27.7183    6.9412 C   0  0  0  0  0  0  0  0  0  0  0  0
   -0.7481   27.6580    6.7991 C   0  0  0  0  0  0  0  0  0  0  0  0
    0.0919   28.6171    7.3669 C   0  0  0  0  0  0  0  0  0  0  0  0
   -0.4508   29.6780    8.0761 C   0  0  0  0  0  0  0  0  0  0  0  0
   -1.8347   29.7831    8.2168 C   0  0  0  0  0  0  0  0  0  0  0  0
   -2.6962   28.8173    7.6551 C   0  0  0  0  0  0  0  0  0  0  0  0
   -4.1088   28.9564    7.8554 N   0  0  0  0  0  0  0  0  0  0  0  0
   -4.7828   29.1950    9.0412 C   0  0  0  0  0  0  0  0  0  0  0  0
   -6.1271   29.2250    8.7583 C   0  0  0  0  0  0  0  0  0  0  0  0
   -6.1997   28.9939    7.3811 C   0  0  0  0  0  0  0  0  0  0  0  0
   -5.0006   28.8236    6.8254 N   0  0  0  0  0  0  0  0  0  0  0  0
  8  9  2  0  0  0
  9 10  1  0  0  0
 10 11  2  0  0  0
 11  2  1  0  0  0
  2  3  2  0  0  0
  3  4  1  0  0  0
  4  1  1  0  0  0
  1 14  1  0  0  0
 14 16  1  0  0  0
 16 17  2  0  0  0
 17 18  1  0  0  0
 18 19  2  0  0  0
 19 20  1  0  0  0
 20 21  2  0  0  0
 21 22  1  0  0  0
 22 23  1  0  0  0
 23 24  2  0  0  0
 24 25  1  0  0  0
 25 26  2  0  0  0
  4  5  2  0  0  0
  5  6  1  0  0  0
 11 12  1  0  0  0
 12 13  2  0  0  0
 13  8  1  0  0  0
  6  2  1  0  0  0
 21 16  1  0  0  0
 26 22  1  0  0  0
 14 15  1  0  0  0
  6  7  1  0  0  0
M  END
> <minimizedAffinity>
-9.44751

$$$$
OCNT-2312485


 32 34  0  0  0  0  0  0  0  0999 V2000
   -5.3497   29.2740    8.5211 C   0  0  0  0  0  0  0  0  0  0  0  0
   -5.3044   28.8880    9.6856 O   0  0  0  0  0  0  0  0  0  0  0  0
   -4.4128   30.0687    7.8873 N   0  0  0  0  0  0  0  0  0  0  0  0
   -4.7039   30.4797    6.9941 H   0  0  0  0  0  0  0  0  0  0  0  0
   -3.1188   30.4367    8.3212 C   0  0  0  0  0  0  0  0  0  0  0  0
   -2.8773   31.6555    8.9678 C   0  0  0  0  0  0  0  0  0  0  0  0
   -1.6003   31.9802    9.4285 C   0  0  0  0  0  0  0  0  0  0  0  0
   -0.5497   31.0879    9.2562 C   0  0  0  0  0  0  0  0  0  0  0  0
   -0.7708   29.8709    8.6098 C   0  0  0  0  0  0  0  0  0  0  0  0
   -2.0472   29.5277    8.1229 C   0  0  0  0  0  0  0  0  0  0  0  0
   -2.2466   28.2560    7.3998 C   0  0  0  0  0  0  0  0  0  0  0  0
   -2.3557   28.1089    6.0867 N   0  0  0  0  0  0  0  0  0  0  0  0
   -2.4209   26.7538    5.8469 C   0  0  0  0  0  0  0  0  0  0  0  0
   -2.4952   26.2178    4.4695 C   0  0  0  0  0  0  0  0  0  0  0  0
   -2.3926   26.0633    7.0350 C   0  0  0  0  0  0  0  0  0  0  0  0
   -2.2773   27.0181    8.0044 N   0  0  0  0  0  0  0  0  0  0  0  0
   -2.1723   26.8449    8.9932 H   0  0  0  0  0  0  0  0  0  0  0  0
   -6.5682   28.9895    7.6375 C   0  0  0  0  0  0  0  0  0  0  0  0
   -6.2588   28.1968    5.3197 C   0  0  0  0  0  0  0  0  0  0  0  0
   -6.4149   29.3136    4.8417 O   0  0  0  0  0  0  0  0  0  0  0  0
   -6.2748   27.9411    6.6705 N   0  0  0  0  0  0  0  0  0  0  0  0
   -6.3913   26.9858    6.9850 H   0  0  0  0  0  0  0  0  0  0  0  0
   -5.7008   24.8422    2.6944 C   0  0  0  0  0  0  0  0  0  0  0  0
   -5.6103   26.1537    2.2156 C   0  0  0  0  0  0  0  0  0  0  0  0
   -5.7904   27.2346    3.0819 C   0  0  0  0  0  0  0  0  0  0  0  0
   -6.0743   27.0146    4.4318 C   0  0  0  0  0  0  0  0  0  0  0  0
   -6.1510   25.7042    4.9223 C   0  0  0  0  0  0  0  0  0  0  0  0
   -5.9649   24.6160    4.0617 C   0  0  0  0  0  0  0  0  0  0  0  0
   -6.4447   23.5246    0.8442 C   0  0  0  0  0  0  0  0  0  0  0  0
   -5.5374   23.7210    1.9192 O   0  0  0  0  0  0  0  0  0  0  0  0
   -6.0207   23.3015    4.4566 O   0  0  0  0  0  0  0  0  0  0  0  0
   -5.8390   23.0163    5.8372 C   0  0  0  0  0  0  0  0  0  0  0  0
 29 30  1  0  0  0
 30 23  1  0  0  0
 23 24  1  0  0  0
 24 25  2  0  0  0
 25 26  1  0  0  0
 26 19  1  0  0  0
 19 20  2  0  0  0
 19 21  1  0  0  0
 21 18  1  0  0  0
 18  1  1  0  0  0
  1  2  2  0  0  0
  1  3  1  0  0  0
  3  5  1  0  0  0
  5  6  2  0  0  0
  6  7  1  0  0  0
  7  8  2  0  0  0
  8  9  1  0  0  0
  9 10  2  0  0  0
 10 11  1  0  0  0
 11 12  2  0  0  0
 12 13  1  0  0  0
 13 14  1  0  0  0
 13 15  2  0  0  0
 15 16  1  0  0  0
 26 27  2  0  0  0
 27 28  1  0  0  0
 28 31  1  0  0  0
 31 32  1  0  0  0
 28 23  2  0  0  0
 10  5  1  0  0  0
 16 11  1  0  0  0
 21 22  1  0  0  0
  3  4  1  0  0  0
 16 17  1  0  0  0
M  END
> <minimizedAffinity>
-9.83818

$$$$
OCNT-2312497


 26 28  0  0  0  0  0  0  0  0999 V2000
   -5.7522   27.8825    6.0817 C   0  0  0  0  0  0  0  0  0  0  0  0
   -5.8978   25.3041    2.5723 C   0  0  0  0  0  0  0  0  0  0  0  0
   -5.6857   26.6851    2.4501 C   0  0  0  0  0  0  0  0  0  0  0  0
   -5.6449   27.5068    3.5814 C   0  0  0  0  0  0  0  0  0  0  0  0
   -5.8262   26.9706    4.8664 C   0  0  0  0  0  0  0  0  0  0  0  0
   -6.0381   25.5886    4.9876 C   0  0  0  0  0  0  0  0  0  0  0  0
   -6.0760   24.7676    3.8555 C   0  0  0  0  0  0  0  0  0  0  0  0
   -6.1405   25.1830    0.0578 C   0  0  0  0  0  0  0  0  0  0  0  0
   -5.9474   24.3933    1.3571 C   0  0  0  0  0  0  0  0  0  0  0  0
   -7.0336   23.3248    1.5137 C   0  0  0  0  0  0  0  0  0  0  0  0
   -4.8036   28.9550    5.8733 N   0  0  0  0  0  0  0  0  0  0  0  0
   -4.7955   29.4020    4.9583 H   0  0  0  0  0  0  0  0  0  0  0  0
   -3.7991   29.3860    6.6964 C   0  0  0  0  0  0  0  0  0  0  0  0
   -4.0596   30.5024    7.3434 N   0  0  0  0  0  0  0  0  0  0  0  0
   -3.1005   30.9849    8.1926 C   0  0  0  0  0  0  0  0  0  0  0  0
   -3.0400   32.0920    9.0031 C   0  0  0  0  0  0  0  0  0  0  0  0
   -4.3236   33.4288    9.2488 Br  0  0  0  0  0  0  0  0  0  0  0  0
   -1.7968   32.0444    9.6393 C   0  0  0  0  0  0  0  0  0  0  0  0
   -1.0809   30.9786    9.2713 N   0  0  0  0  0  0  0  0  0  0  0  0
   -1.8785   30.3332    8.3770 N   0  0  0  0  0  0  0  0  0  0  0  0
   -1.6007   29.1575    7.6917 C   0  0  0  0  0  0  0  0  0  0  0  0
   -2.5031   28.6368    6.8508 C   0  0  0  0  0  0  0  0  0  0  0  0
   -7.1445   28.4548    6.3950 C   0  0  0  0  0  0  0  0  0  0  0  0
   -7.3081   29.8873    5.8995 C   0  0  0  0  0  0  0  0  0  0  0  0
   -7.0582   30.7956    6.9651 O   0  0  0  0  0  0  0  0  0  0  0  0
   -6.1406   30.6671    7.2615 H   0  0  0  0  0  0  0  0  0  0  0  0
  8  9  1  0  0  0
  9 10  1  0  0  0
  9  2  1  0  0  0
  2  3  1  0  0  0
  3  4  2  0  0  0
  4  5  1  0  0  0
  5  1  1  0  0  0
  1 23  1  0  0  0
 23 24  1  0  0  0
 24 25  1  0  0  0
  1 11  1  0  0  0
 11 13  1  0  0  0
 13 14  2  0  0  0
 14 15  1  0  0  0
 15 16  2  0  0  0
 16 17  1  0  0  0
 16 18  1  0  0  0
 18 19  2  0  0  0
 19 20  1  0  0  0
 20 21  1  0  0  0
 21 22  2  0  0  0
  5  6  2  0  0  0
  6  7  1  0  0  0
  7  2  2  0  0  0
 22 13  1  0  0  0
 20 15  1  0  0  0
 25 26  1  0  0  0
 11 12  1  0  0  0
M  END
> <minimizedAffinity>
-8.90134

$$$$
OCNT-2312506


 34 37  0  0  0  0  0  0  0  0999 V2000
   -5.7342   25.9556    2.6983 N   0  0  0  0  0  0  0  0  0  0  0  0
   -4.6743   26.5284    3.3654 C   0  0  0  0  0  0  0  0  0  0  0  0
   -3.5025   26.3728    3.0434 O   0  0  0  0  0  0  0  0  0  0  0  0
   -6.6377   25.9272    3.1521 H   0  0  0  0  0  0  0  0  0  0  0  0
   -5.0132   27.3435    4.5677 C   0  0  0  0  0  0  0  0  0  0  0  0
   -3.9268   27.7487    5.3799 C   0  0  0  0  0  0  0  0  0  0  0  0
   -4.3511   28.5137    6.4653 C   0  0  0  0  0  0  0  0  0  0  0  0
   -3.5721   29.0607    7.4520 C   0  0  0  0  0  0  0  0  0  0  0  0
   -4.4075   29.6993    8.3279 O   0  0  0  0  0  0  0  0  0  0  0  0
   -5.7238   29.5900    7.9164 N   0  0  0  0  0  0  0  0  0  0  0  0
   -5.7126   28.8722    6.7831 C   0  0  0  0  0  0  0  0  0  0  0  0
   -6.7765   28.4710    5.9570 C   0  0  0  0  0  0  0  0  0  0  0  0
   -6.3778   27.7029    4.8378 C   0  0  0  0  0  0  0  0  0  0  0  0
   -2.1544   29.1388    7.7755 C   0  0  0  0  0  0  0  0  0  0  0  0
   -1.2384   28.2189    7.2406 C   0  0  0  0  0  0  0  0  0  0  0  0
    0.1204   28.3000    7.5587 C   0  0  0  0  0  0  0  0  0  0  0  0
    0.5677   29.3031    8.4089 C   0  0  0  0  0  0  0  0  0  0  0  0
    1.8697   29.3801    8.7126 F   0  0  0  0  0  0  0  0  0  0  0  0
   -0.3167   30.2297    8.9449 C   0  0  0  0  0  0  0  0  0  0  0  0
   -1.6750   30.1489    8.6269 C   0  0  0  0  0  0  0  0  0  0  0  0
   -5.5286   25.0698    1.5622 C   0  0  0  0  0  0  0  0  0  0  0  0
   -6.1911   25.6147    0.2930 C   0  0  0  0  0  0  0  0  0  0  0  0
   -7.2631   22.1492    3.3384 C   0  0  0  0  0  0  0  0  0  0  0  0
   -6.9184   21.0722    2.5195 C   0  0  0  0  0  0  0  0  0  0  0  0
   -6.1387   21.2969    1.3868 C   0  0  0  0  0  0  0  0  0  0  0  0
   -5.7012   22.5887    1.0807 C   0  0  0  0  0  0  0  0  0  0  0  0
   -6.0375   23.6783    1.9010 C   0  0  0  0  0  0  0  0  0  0  0  0
   -6.8205   23.4433    3.0435 C   0  0  0  0  0  0  0  0  0  0  0  0
   -8.2189   21.8581    4.8048 S   0  0  0  0  0  0  0  0  0  0  0  0
   -9.1245   20.7650    4.5286 O   0  0  0  0  0  0  0  0  0  0  0  0
   -7.3279   21.8380    5.9439 O   0  0  0  0  0  0  0  0  0  0  0  0
   -9.6230   23.6972    6.1962 C   0  0  0  0  0  0  0  0  0  0  0  0
   -9.1608   23.2425    4.8924 N   0  0  0  0  0  0  0  0  0  0  0  0
   -9.7775   23.3541    4.0888 H   0  0  0  0  0  0  0  0  0  0  0  0
 32 33  1  0  0  0
 33 29  1  0  0  0
 29 30  2  0  0  0
 29 31  2  0  0  0
 29 23  1  0  0  0
 23 24  2  0  0  0
 24 25  1  0  0  0
 25 26  2  0  0  0
 26 27  1  0  0  0
 27 21  1  0  0  0
 21 22  1  0  0  0
 21  1  1  0  0  0
  1  2  1  0  0  0
  2  3  2  0  0  0
  2  5  1  0  0  0
  5  6  2  0  0  0
  6  7  1  0  0  0
  7  8  2  0  0  0
  8 14  1  0  0  0
 14 15  1  0  0  0
 15 16  2  0  0  0
 16 17  1  0  0  0
 17 18  1  0  0  0
 17 19  2  0  0  0
 19 20  1  0  0  0
  8  9  1  0  0  0
  9 10  1  0  0  0
 10 11  2  0  0  0
 11 12  1  0  0  0
 12 13  2  0  0  0
 27 28  2  0  0  0
 28 23  1  0  0  0
 13  5  1  0  0  0
 11  7  1  0  0  0
 20 14  2  0  0  0
 33 34  1  0  0  0
  1  4  1  0  0  0
M  END
> <minimizedAffinity>
-10.61572

$$$$
OCNT-2312510


 35 38  0  0  0  0  0  0  0  0999 V2000
   -2.4106   26.1213    4.9007 C   0  0  0  0  0  0  0  0  0  0  0  0
   -2.6042   25.9751    3.3876 C   0  0  0  0  0  0  0  0  0  0  0  0
   -3.5697   24.8433    3.0577 C   0  0  0  0  0  0  0  0  0  0  0  0
   -4.8825   25.1537    3.6318 N   0  0  0  0  0  0  0  0  0  0  0  0
   -4.9221   25.7181    4.9864 C   0  0  0  0  0  0  0  0  0  0  0  0
   -3.5871   25.5503    5.7055 C   0  0  0  0  0  0  0  0  0  0  0  0
   -2.3296   27.1828    7.4890 O   0  0  0  0  0  0  0  0  0  0  0  0
   -2.1443   27.9463    6.5519 C   0  0  0  0  0  0  0  0  0  0  0  0
   -1.9043   29.3014    6.6208 N   0  0  0  0  0  0  0  0  0  0  0  0
   -2.1414   27.5202    5.2357 N   0  0  0  0  0  0  0  0  0  0  0  0
   -1.5280   29.7128    5.7801 H   0  0  0  0  0  0  0  0  0  0  0  0
   -2.4355   28.2108    4.5609 H   0  0  0  0  0  0  0  0  0  0  0  0
   -1.9200   30.1178    7.7688 C   0  0  0  0  0  0  0  0  0  0  0  0
   -3.1317   30.2172    8.4686 C   0  0  0  0  0  0  0  0  0  0  0  0
   -3.2241   31.0012    9.6216 C   0  0  0  0  0  0  0  0  0  0  0  0
   -2.1030   31.6808   10.0776 C   0  0  0  0  0  0  0  0  0  0  0  0
   -2.1906   32.4329   11.1823 F   0  0  0  0  0  0  0  0  0  0  0  0
   -0.8932   31.5890    9.4031 C   0  0  0  0  0  0  0  0  0  0  0  0
   -0.8010   30.8058    8.2482 C   0  0  0  0  0  0  0  0  0  0  0  0
   -5.9396   24.3487    3.2087 C   0  0  0  0  0  0  0  0  0  0  0  0
   -6.1308   24.0748    1.8679 C   0  0  0  0  0  0  0  0  0  0  0  0
   -7.1822   23.2457    1.5135 C   0  0  0  0  0  0  0  0  0  0  0  0
   -8.0162   22.7192    2.4402 N   0  0  0  0  0  0  0  0  0  0  0  0
   -7.7604   23.0147    3.7237 C   0  0  0  0  0  0  0  0  0  0  0  0
   -6.7483   23.8015    4.1315 N   0  0  0  0  0  0  0  0  0  0  0  0
   -8.6442   22.4402    4.7542 C   0  0  0  0  0  0  0  0  0  0  0  0
   -8.5741   22.8523    6.0937 C   0  0  0  0  0  0  0  0  0  0  0  0
   -9.4245   22.2833    7.0290 C   0  0  0  0  0  0  0  0  0  0  0  0
  -10.3376   21.3371    6.7340 N   0  0  0  0  0  0  0  0  0  0  0  0
  -10.4027   20.9446    5.4463 C   0  0  0  0  0  0  0  0  0  0  0  0
   -9.5947   21.4559    4.4425 C   0  0  0  0  0  0  0  0  0  0  0  0
   -7.4196   22.9509    0.0434 C   0  0  0  0  0  0  0  0  0  0  0  0
   -8.5490   22.2297   -0.2042 F   0  0  0  0  0  0  0  0  0  0  0  0
   -7.5267   24.0875   -0.7033 F   0  0  0  0  0  0  0  0  0  0  0  0
   -6.3986   22.2400   -0.5213 F   0  0  0  0  0  0  0  0  0  0  0  0
  7  8  2  0  0  0
  8  9  1  0  0  0
  9 13  1  0  0  0
 13 14  1  0  0  0
 14 15  2  0  0  0
 15 16  1  0  0  0
 16 17  1  0  0  0
 16 18  2  0  0  0
 18 19  1  0  0  0
  8 10  1  0  0  0
 10  1  1  0  0  0
  1  2  1  0  0  0
  2  3  1  0  0  0
  3  4  1  0  0  0
  4 20  1  0  0  0
 20 21  2  0  0  0
 21 22  1  0  0  0
 22 32  1  0  0  0
 32 33  1  0  0  0
 32 34  1  0  0  0
 32 35  1  0  0  0
 22 23  2  0  0  0
 23 24  1  0  0  0
 24 26  1  0  0  0
 26 27  2  0  0  0
 27 28  1  0  0  0
 28 29  2  0  0  0
 29 30  1  0  0  0
 30 31  2  0  0  0
 24 25  2  0  0  0
  4  5  1  0  0  0
  5  6  1  0  0  0
 19 13  2  0  0  0
  6  1  1  0  0  0
 25 20  1  0  0  0
 31 26  1  0  0  0
  9 11  1  0  0  0
 10 12  1  0  0  0
M  END
> <minimizedAffinity>
-10.66516

$$$$
OCNT-2312526


 26 28  0  0  0  0  0  0  0  0999 V2000
   -4.6784   27.1868    5.4233 O   0  0  0  0  0  0  0  0  0  0  0  0
   -3.9255   28.0579    5.8439 C   0  0  0  0  0  0  0  0  0  0  0  0
   -4.3195   29.3756    5.9827 N   0  0  0  0  0  0  0  0  0  0  0  0
   -3.7414   29.9823    6.5444 H   0  0  0  0  0  0  0  0  0  0  0  0
   -2.5556   27.7832    6.2471 C   0  0  0  0  0  0  0  0  0  0  0  0
   -1.8133   26.6243    6.0839 C   0  0  0  0  0  0  0  0  0  0  0  0
   -0.5906   26.8625    6.6447 N   0  0  0  0  0  0  0  0  0  0  0  0
   -0.4651   28.0988    7.1463 N   0  0  0  0  0  0  0  0  0  0  0  0
   -1.6650   28.6407    6.9337 C   0  0  0  0  0  0  0  0  0  0  0  0
    0.2014   26.2312    6.7185 H   0  0  0  0  0  0  0  0  0  0  0  0
   -1.9134   29.9085    7.3252 O   0  0  0  0  0  0  0  0  0  0  0  0
   -1.9969   30.1032    8.7412 C   0  0  0  0  0  0  0  0  0  0  0  0
   -1.2725   31.3482    9.2335 C   0  0  0  0  0  0  0  0  0  0  0  0
   -1.3869   32.4128    8.4134 F   0  0  0  0  0  0  0  0  0  0  0  0
   -1.7714   31.7253   10.4394 F   0  0  0  0  0  0  0  0  0  0  0  0
    0.0480   31.1123    9.4170 F   0  0  0  0  0  0  0  0  0  0  0  0
   -5.6967   29.7677    5.7409 C   0  0  0  0  0  0  0  0  0  0  0  0
   -6.3088   30.1334    7.0903 C   0  0  0  0  0  0  0  0  0  0  0  0
   -6.4684   28.9446    8.0765 C   0  0  0  0  0  0  0  0  0  0  0  0
   -5.9523   29.9240    9.1430 C   0  0  0  0  0  0  0  0  0  0  0  0
   -5.3196   30.6943    8.0489 N   0  0  0  0  0  0  0  0  0  0  0  0
   -5.3816   32.1362    8.2835 C   0  0  0  0  0  0  0  0  0  0  0  0
   -4.7873   33.1431    7.2901 C   0  0  0  0  0  0  0  0  0  0  0  0
   -4.7978   34.4597    8.0652 C   0  0  0  0  0  0  0  0  0  0  0  0
   -4.7167   34.0817    9.5444 C   0  0  0  0  0  0  0  0  0  0  0  0
   -4.7044   32.5555    9.5916 C   0  0  0  0  0  0  0  0  0  0  0  0
  1  2  2  0  0  0
  2  3  1  0  0  0
  3 17  1  0  0  0
 17 18  1  0  0  0
 18 19  1  0  0  0
 19 20  1  0  0  0
 20 21  1  0  0  0
 21 22  1  0  0  0
 22 23  1  0  0  0
 23 24  1  0  0  0
 24 25  1  0  0  0
 25 26  1  0  0  0
  2  5  1  0  0  0
  5  6  2  0  0  0
  6  7  1  0  0  0
  7  8  1  0  0  0
  8  9  2  0  0  0
  9 11  1  0  0  0
 11 12  1  0  0  0
 12 13  1  0  0  0
 13 14  1  0  0  0
 13 15  1  0  0  0
 13 16  1  0  0  0
 21 18  1  0  0  0
 26 22  1  0  0  0
  9  5  1  0  0  0
  3  4  1  0  0  0
  7 10  1  0  0  0
M  END
> <minimizedAffinity>
-8.19648

$$$$
OCNT-2312546


 31 34  0  0  0  0  0  0  0  0999 V2000
   -4.6868   28.1908    4.7790 N   0  0  0  0  0  0  0  0  0  0  0  0
   -4.5723   28.3364    6.1437 C   0  0  0  0  0  0  0  0  0  0  0  0
   -4.0927   27.5343    6.9331 O   0  0  0  0  0  0  0  0  0  0  0  0
   -5.0681   29.5592    6.5430 N   0  0  0  0  0  0  0  0  0  0  0  0
   -4.8386   29.0484    4.2705 H   0  0  0  0  0  0  0  0  0  0  0  0
   -5.7928   29.9614    5.9688 H   0  0  0  0  0  0  0  0  0  0  0  0
   -5.0853   29.9169    7.9453 C   0  0  0  0  0  0  0  0  0  0  0  0
   -6.1111   31.0230    8.2750 C   0  0  0  0  0  0  0  0  0  0  0  0
   -5.3875   32.3668    8.0983 C   0  0  0  0  0  0  0  0  0  0  0  0
   -3.9750   31.9859    8.4141 C   0  0  0  0  0  0  0  0  0  0  0  0
   -2.9120   32.8225    8.7130 C   0  0  0  0  0  0  0  0  0  0  0  0
   -1.6577   32.2484    8.9383 C   0  0  0  0  0  0  0  0  0  0  0  0
   -1.4940   30.8598    8.8474 C   0  0  0  0  0  0  0  0  0  0  0  0
   -0.2760   30.2799    9.0559 O   0  0  0  0  0  0  0  0  0  0  0  0
   -2.5600   30.0210    8.5357 C   0  0  0  0  0  0  0  0  0  0  0  0
   -3.8019   30.5984    8.3250 C   0  0  0  0  0  0  0  0  0  0  0  0
    0.3600   30.9738    9.2943 H   0  0  0  0  0  0  0  0  0  0  0  0
   -4.9478   25.3239    2.3610 C   0  0  0  0  0  0  0  0  0  0  0  0
   -3.6655   24.7811    2.5332 C   0  0  0  0  0  0  0  0  0  0  0  0
   -2.7556   25.3600    3.4171 C   0  0  0  0  0  0  0  0  0  0  0  0
   -3.1193   26.4893    4.1500 C   0  0  0  0  0  0  0  0  0  0  0  0
   -4.3952   27.0459    4.0107 C   0  0  0  0  0  0  0  0  0  0  0  0
   -5.2951   26.4638    3.1126 C   0  0  0  0  0  0  0  0  0  0  0  0
   -6.5880   23.4937    1.7220 C   0  0  0  0  0  0  0  0  0  0  0  0
   -7.5064   22.9686    0.8018 C   0  0  0  0  0  0  0  0  0  0  0  0
   -7.7615   23.6254   -0.4040 C   0  0  0  0  0  0  0  0  0  0  0  0
   -7.1040   24.8123   -0.7028 C   0  0  0  0  0  0  0  0  0  0  0  0
   -6.1926   25.3465    0.2075 C   0  0  0  0  0  0  0  0  0  0  0  0
   -5.9189   24.7064    1.4332 C   0  0  0  0  0  0  0  0  0  0  0  0
   -5.6978   21.6002    2.8805 C   0  0  0  0  0  0  0  0  0  0  0  0
   -6.2793   22.8956    2.9198 O   0  0  0  0  0  0  0  0  0  0  0  0
 30 31  1  0  0  0
 31 24  1  0  0  0
 24 25  2  0  0  0
 25 26  1  0  0  0
 26 27  2  0  0  0
 27 28  1  0  0  0
 28 29  2  0  0  0
 29 18  1  0  0  0
 18 19  1  0  0  0
 19 20  2  0  0  0
 20 21  1  0  0  0
 21 22  2  0  0  0
 22  1  1  0  0  0
  1  2  1  0  0  0
  2  3  2  0  0  0
  2  4  1  0  0  0
  4  7  1  0  0  0
  7  8  1  0  0  0
  8  9  1  0  0  0
  9 10  1  0  0  0
 10 11  1  0  0  0
 11 12  2  0  0  0
 12 13  1  0  0  0
 13 14  1  0  0  0
 13 15  2  0  0  0
 15 16  1  0  0  0
 22 23  1  0  0  0
 29 24  1  0  0  0
 23 18  2  0  0  0
 16  7  1  0  0  0
 16 10  2  0  0  0
  1  5  1  0  0  0
  4  6  1  0  0  0
 14 17  1  0  0  0
M  END
> <minimizedAffinity>
-10.81462

$$$$
OCNT-2312554


 25 28  0  0  0  0  0  0  0  0999 V2000
   -6.9069   25.0708    5.3019 O   0  0  0  0  0  0  0  0  0  0  0  0
   -6.0524   25.5648    4.5767 C   0  0  0  0  0  0  0  0  0  0  0  0
   -5.1347   24.8277    3.8557 N   0  0  0  0  0  0  0  0  0  0  0  0
   -4.6949   25.2721    3.0610 H   0  0  0  0  0  0  0  0  0  0  0  0
   -5.9945   27.0414    4.4102 C   0  0  0  0  0  0  0  0  0  0  0  0
   -6.0083   27.6407    3.1523 C   0  0  0  0  0  0  0  0  0  0  0  0
   -5.9418   29.0184    3.0983 C   0  0  0  0  0  0  0  0  0  0  0  0
   -5.8630   29.8066    4.1907 N   0  0  0  0  0  0  0  0  0  0  0  0
   -5.8287   29.2088    5.4116 C   0  0  0  0  0  0  0  0  0  0  0  0
   -5.8894   27.8304    5.5611 C   0  0  0  0  0  0  0  0  0  0  0  0
   -5.7288   30.0586    6.5489 N   0  0  0  0  0  0  0  0  0  0  0  0
   -6.7229   30.2697    7.4819 C   0  0  0  0  0  0  0  0  0  0  0  0
   -6.2012   31.1463    8.4011 C   0  0  0  0  0  0  0  0  0  0  0  0
   -4.9192   31.4871    8.0707 N   0  0  0  0  0  0  0  0  0  0  0  0
   -4.6640   30.8274    6.9605 C   0  0  0  0  0  0  0  0  0  0  0  0
   -5.2106   23.3742    3.8368 C   0  0  0  0  0  0  0  0  0  0  0  0
   -4.8992   22.8061    2.4487 C   0  0  0  0  0  0  0  0  0  0  0  0
   -5.4160   21.3607    2.2623 C   0  0  0  0  0  0  0  0  0  0  0  0
   -6.8427   21.4656    1.7029 C   0  0  0  0  0  0  0  0  0  0  0  0
   -6.7600   22.7518    0.9432 C   0  0  0  0  0  0  0  0  0  0  0  0
   -7.6295   23.2241   -0.0250 C   0  0  0  0  0  0  0  0  0  0  0  0
   -7.3789   24.4780   -0.5858 C   0  0  0  0  0  0  0  0  0  0  0  0
   -6.2776   25.2414   -0.1681 C   0  0  0  0  0  0  0  0  0  0  0  0
   -5.4125   24.7629    0.8180 C   0  0  0  0  0  0  0  0  0  0  0  0
   -5.6660   23.5159    1.3668 C   0  0  0  0  0  0  0  0  0  0  0  0
  1  2  2  0  0  0
  2  3  1  0  0  0
  3 16  1  0  0  0
 16 17  1  0  0  0
 17 18  1  0  0  0
 18 19  1  0  0  0
 19 20  1  0  0  0
 20 21  2  0  0  0
 21 22  1  0  0  0
 22 23  2  0  0  0
 23 24  1  0  0  0
 24 25  2  0  0  0
  2  5  1  0  0  0
  5  6  2  0  0  0
  6  7  1  0  0  0
  7  8  2  0  0  0
  8  9  1  0  0  0
  9 11  1  0  0  0
 11 12  1  0  0  0
 12 13  2  0  0  0
 13 14  1  0  0  0
 14 15  2  0  0  0
  9 10  2  0  0  0
 25 17  1  0  0  0
 10  5  1  0  0  0
 25 20  1  0  0  0
 15 11  1  0  0  0
  3  4  1  0  0  0
M  END
> <minimizedAffinity>
-9.89746

$$$$
OCNT-2312556


 28 30  0  0  0  0  0  0  0  0999 V2000
   -4.7647   30.4461    8.3567 N   0  0  0  0  0  0  0  0  0  0  0  0
   -5.0676   30.5258    6.9992 C   0  0  0  0  0  0  0  0  0  0  0  0
   -4.3501   31.1126    6.1926 O   0  0  0  0  0  0  0  0  0  0  0  0
   -5.5922   29.7047    9.3196 C   0  0  0  0  0  0  0  0  0  0  0  0
   -6.5975   30.6087   10.0186 C   0  0  0  0  0  0  0  0  0  0  0  0
   -3.5483   31.0927    8.9151 C   0  0  0  0  0  0  0  0  0  0  0  0
   -2.2915   30.2612    8.7132 C   0  0  0  0  0  0  0  0  0  0  0  0
   -1.0390   30.7901    9.0528 C   0  0  0  0  0  0  0  0  0  0  0  0
    0.0948   30.0145    8.8596 C   0  0  0  0  0  0  0  0  0  0  0  0
    0.0726   28.7648    8.3545 N   0  0  0  0  0  0  0  0  0  0  0  0
   -1.1385   28.2731    8.0196 C   0  0  0  0  0  0  0  0  0  0  0  0
   -2.3272   28.9697    8.1776 C   0  0  0  0  0  0  0  0  0  0  0  0
   -4.4006   33.5429    9.3491 C   0  0  0  0  0  0  0  0  0  0  0  0
   -3.4034   32.6164    8.6620 C   0  0  0  0  0  0  0  0  0  0  0  0
   -6.3372   29.8296    6.5237 C   0  0  0  0  0  0  0  0  0  0  0  0
   -6.1509   28.3451    6.1971 C   0  0  0  0  0  0  0  0  0  0  0  0
   -4.8179   28.0448    5.5042 C   0  0  0  0  0  0  0  0  0  0  0  0
   -4.9673   27.0012    4.5062 N   0  0  0  0  0  0  0  0  0  0  0  0
   -5.5637   27.1951    3.2894 C   0  0  0  0  0  0  0  0  0  0  0  0
   -6.0738   28.2014    2.8347 O   0  0  0  0  0  0  0  0  0  0  0  0
   -5.4629   25.9268    2.5706 C   0  0  0  0  0  0  0  0  0  0  0  0
   -5.9145   25.5699    1.3151 C   0  0  0  0  0  0  0  0  0  0  0  0
   -5.6561   24.2622    0.8916 C   0  0  0  0  0  0  0  0  0  0  0  0
   -4.9603   23.3572    1.7207 C   0  0  0  0  0  0  0  0  0  0  0  0
   -4.5112   23.7445    2.9873 C   0  0  0  0  0  0  0  0  0  0  0  0
   -4.7808   25.0399    3.3834 C   0  0  0  0  0  0  0  0  0  0  0  0
   -4.4462   25.7412    4.6217 C   0  0  0  0  0  0  0  0  0  0  0  0
   -3.8107   25.2443    5.5310 O   0  0  0  0  0  0  0  0  0  0  0  0
 13 14  1  0  0  0
 14  6  1  0  0  0
  6  7  1  0  0  0
  7  8  2  0  0  0
  8  9  1  0  0  0
  9 10  2  0  0  0
 10 11  1  0  0  0
 11 12  2  0  0  0
  6  1  1  0  0  0
  1  4  1  0  0  0
  4  5  1  0  0  0
  1  2  1  0  0  0
  2  3  2  0  0  0
  2 15  1  0  0  0
 15 16  1  0  0  0
 16 17  1  0  0  0
 17 18  1  0  0  0
 18 19  1  0  0  0
 19 20  2  0  0  0
 19 21  1  0  0  0
 21 22  2  0  0  0
 22 23  1  0  0  0
 23 24  2  0  0  0
 24 25  1  0  0  0
 25 26  2  0  0  0
 26 27  1  0  0  0
 27 28  2  0  0  0
 12  7  1  0  0  0
 27 18  1  0  0  0
 26 21  1  0  0  0
M  END
> <minimizedAffinity>
-9.14140

$$$$
OCNT-2312575


 26 28  0  0  0  0  0  0  0  0999 V2000
   -5.9066   28.4509    6.0200 C   0  0  0  0  0  0  0  0  0  0  0  0
   -6.5956   28.2728    7.0295 O   0  0  0  0  0  0  0  0  0  0  0  0
   -5.8560   27.5310    4.9775 N   0  0  0  0  0  0  0  0  0  0  0  0
   -6.6048   26.2810    5.0970 C   0  0  0  0  0  0  0  0  0  0  0  0
   -5.8268   25.1039    4.5172 C   0  0  0  0  0  0  0  0  0  0  0  0
   -5.3997   25.3331    3.0523 C   0  0  0  0  0  0  0  0  0  0  0  0
   -5.5082   26.8079    2.6285 C   0  0  0  0  0  0  0  0  0  0  0  0
   -5.0771   27.7372    3.7562 C   0  0  0  0  0  0  0  0  0  0  0  0
   -6.1362   24.4330    2.0738 C   0  0  0  0  0  0  0  0  0  0  0  0
   -6.2960   24.8371    0.7394 C   0  0  0  0  0  0  0  0  0  0  0  0
   -6.9738   24.0282   -0.1751 C   0  0  0  0  0  0  0  0  0  0  0  0
   -7.5031   22.8062    0.2320 C   0  0  0  0  0  0  0  0  0  0  0  0
   -7.3560   22.3927    1.5536 C   0  0  0  0  0  0  0  0  0  0  0  0
   -6.6783   23.2003    2.4692 C   0  0  0  0  0  0  0  0  0  0  0  0
   -5.0560   29.7181    5.8735 C   0  0  0  0  0  0  0  0  0  0  0  0
   -2.8904   30.5438    6.7021 C   0  0  0  0  0  0  0  0  0  0  0  0
   -3.1974   31.7143    6.5131 O   0  0  0  0  0  0  0  0  0  0  0  0
   -3.7360   29.4961    6.4289 N   0  0  0  0  0  0  0  0  0  0  0  0
   -3.4229   28.5318    6.4944 H   0  0  0  0  0  0  0  0  0  0  0  0
   -2.1569   31.0524    9.5511 C   0  0  0  0  0  0  0  0  0  0  0  0
   -1.2086   30.4013    8.5829 C   0  0  0  0  0  0  0  0  0  0  0  0
    0.0583   29.9979    9.0367 C   0  0  0  0  0  0  0  0  0  0  0  0
    0.9682   29.3858    8.1727 C   0  0  0  0  0  0  0  0  0  0  0  0
    0.6238   29.1568    6.8437 C   0  0  0  0  0  0  0  0  0  0  0  0
   -0.6328   29.5405    6.3763 C   0  0  0  0  0  0  0  0  0  0  0  0
   -1.5514   30.1650    7.2370 C   0  0  0  0  0  0  0  0  0  0  0  0
 20 21  1  0  0  0
 21 22  2  0  0  0
 22 23  1  0  0  0
 23 24  2  0  0  0
 24 25  1  0  0  0
 25 26  2  0  0  0
 26 16  1  0  0  0
 16 17  2  0  0  0
 16 18  1  0  0  0
 18 15  1  0  0  0
 15  1  1  0  0  0
  1  2  2  0  0  0
  1  3  1  0  0  0
  3  4  1  0  0  0
  4  5  1  0  0  0
  5  6  1  0  0  0
  6  9  1  0  0  0
  9 10  2  0  0  0
 10 11  1  0  0  0
 11 12  2  0  0  0
 12 13  1  0  0  0
 13 14  2  0  0  0
  6  7  1  0  0  0
  7  8  1  0  0  0
 26 21  1  0  0  0
  8  3  1  0  0  0
 14  9  1  0  0  0
 18 19  1  0  0  0
M  END
> <minimizedAffinity>
-10.45264

$$$$
OCNT-2312594


 27 30  0  0  0  0  0  0  0  0999 V2000
   -2.1338   27.3066    7.9218 O   0  0  0  0  0  0  0  0  0  0  0  0
   -1.4803   27.8681    7.0524 C   0  0  0  0  0  0  0  0  0  0  0  0
   -1.3304   27.4035    5.7692 N   0  0  0  0  0  0  0  0  0  0  0  0
   -0.7563   27.9289    5.1226 H   0  0  0  0  0  0  0  0  0  0  0  0
   -0.7479   29.1533    7.3386 C   0  0  0  0  0  0  0  0  0  0  0  0
    0.6444   29.0297    7.9573 C   0  0  0  0  0  0  0  0  0  0  0  0
    0.5140   29.4555    6.5309 C   0  0  0  0  0  0  0  0  0  0  0  0
   -1.6159   30.3173    7.8093 C   0  0  0  0  0  0  0  0  0  0  0  0
   -2.5300   30.9332    6.9343 C   0  0  0  0  0  0  0  0  0  0  0  0
   -3.3246   32.0080    7.3443 C   0  0  0  0  0  0  0  0  0  0  0  0
   -3.2136   32.4897    8.6441 C   0  0  0  0  0  0  0  0  0  0  0  0
   -4.1882   33.8115    9.1551 Cl  0  0  0  0  0  0  0  0  0  0  0  0
   -2.3145   31.9078    9.5322 C   0  0  0  0  0  0  0  0  0  0  0  0
   -1.5222   30.8335    9.1147 C   0  0  0  0  0  0  0  0  0  0  0  0
   -1.9624   26.1811    5.3074 C   0  0  0  0  0  0  0  0  0  0  0  0
   -1.9297   26.0016    3.7873 C   0  0  0  0  0  0  0  0  0  0  0  0
   -3.2877   25.9655    3.1836 C   0  0  0  0  0  0  0  0  0  0  0  0
   -3.6573   25.0024    2.3307 N   0  0  0  0  0  0  0  0  0  0  0  0
   -4.9451   25.3451    2.0383 N   0  0  0  0  0  0  0  0  0  0  0  0
   -5.4189   26.4517    2.6764 N   0  0  0  0  0  0  0  0  0  0  0  0
   -4.3609   26.8460    3.3852 C   0  0  0  0  0  0  0  0  0  0  0  0
   -5.7445   24.5865    1.1445 C   0  0  0  0  0  0  0  0  0  0  0  0
   -6.5237   25.2341    0.1749 C   0  0  0  0  0  0  0  0  0  0  0  0
   -7.3081   24.4835   -0.7034 C   0  0  0  0  0  0  0  0  0  0  0  0
   -7.3180   23.0913   -0.6176 C   0  0  0  0  0  0  0  0  0  0  0  0
   -6.5449   22.4436    0.3460 C   0  0  0  0  0  0  0  0  0  0  0  0
   -5.7577   23.1866    1.2282 C   0  0  0  0  0  0  0  0  0  0  0  0
  1  2  2  0  0  0
  2  3  1  0  0  0
  3 15  1  0  0  0
 15 16  1  0  0  0
 16 17  1  0  0  0
 17 18  2  0  0  0
 18 19  1  0  0  0
 19 22  1  0  0  0
 22 23  2  0  0  0
 23 24  1  0  0  0
 24 25  2  0  0  0
 25 26  1  0  0  0
 26 27  2  0  0  0
 19 20  1  0  0  0
 20 21  2  0  0  0
  2  5  1  0  0  0
  5  8  1  0  0  0
  8  9  1  0  0  0
  9 10  2  0  0  0
 10 11  1  0  0  0
 11 12  1  0  0  0
 11 13  2  0  0  0
 13 14  1  0  0  0
  5  6  1  0  0  0
  6  7  1  0  0  0
 21 17  1  0  0  0
  7  5  1  0  0  0
 27 22  1  0  0  0
 14  8  2  0  0  0
  3  4  1  0  0  0
M  END
> <minimizedAffinity>
-10.79400

$$$$
OCNT-2312606


 30 34  0  0  0  0  0  0  0  0999 V2000
   -1.8926   28.4232    6.5724 O   0  0  0  0  0  0  0  0  0  0  0  0
   -3.1211   28.3689    6.5742 C   0  0  0  0  0  0  0  0  0  0  0  0
   -3.8273   27.5346    5.6884 N   0  0  0  0  0  0  0  0  0  0  0  0
   -5.0520   28.0115    5.0416 C   0  0  0  0  0  0  0  0  0  0  0  0
   -5.9181   26.8517    4.5664 C   0  0  0  0  0  0  0  0  0  0  0  0
   -5.1045   25.9058    3.6761 C   0  0  0  0  0  0  0  0  0  0  0  0
   -3.8208   25.4432    4.3733 C   0  0  0  0  0  0  0  0  0  0  0  0
   -3.0146   26.6377    4.8706 C   0  0  0  0  0  0  0  0  0  0  0  0
   -3.8989   29.1441    7.5422 C   0  0  0  0  0  0  0  0  0  0  0  0
   -4.6209   28.6419    8.6137 C   0  0  0  0  0  0  0  0  0  0  0  0
   -5.1744   29.6906    9.2965 N   0  0  0  0  0  0  0  0  0  0  0  0
   -4.8096   30.8812    8.7142 C   0  0  0  0  0  0  0  0  0  0  0  0
   -5.1275   32.1971    9.0763 C   0  0  0  0  0  0  0  0  0  0  0  0
   -4.5922   33.2262    8.2965 C   0  0  0  0  0  0  0  0  0  0  0  0
   -4.9545   34.8614    8.7026 Cl  0  0  0  0  0  0  0  0  0  0  0  0
   -3.7733   32.9581    7.2038 C   0  0  0  0  0  0  0  0  0  0  0  0
   -3.4681   31.6362    6.8573 C   0  0  0  0  0  0  0  0  0  0  0  0
   -3.9956   30.5731    7.6222 C   0  0  0  0  0  0  0  0  0  0  0  0
   -5.7500   29.6101   10.1241 H   0  0  0  0  0  0  0  0  0  0  0  0
   -5.8940   24.8101    3.1484 N   0  0  0  0  0  0  0  0  0  0  0  0
   -6.3966   23.7543    3.9456 C   0  0  0  0  0  0  0  0  0  0  0  0
   -6.2620   23.5945    5.1472 O   0  0  0  0  0  0  0  0  0  0  0  0
   -7.0942   22.8974    3.0856 N   0  0  0  0  0  0  0  0  0  0  0  0
   -7.0264   23.3984    1.7930 C   0  0  0  0  0  0  0  0  0  0  0  0
   -7.5684   22.8748    0.6408 C   0  0  0  0  0  0  0  0  0  0  0  0
   -7.3455   23.5867   -0.5398 C   0  0  0  0  0  0  0  0  0  0  0  0
   -6.5982   24.7821   -0.5324 C   0  0  0  0  0  0  0  0  0  0  0  0
   -6.0577   25.2919    0.6557 C   0  0  0  0  0  0  0  0  0  0  0  0
   -6.2848   24.5821    1.8156 C   0  0  0  0  0  0  0  0  0  0  0  0
   -7.5575   22.0579    3.3917 H   0  0  0  0  0  0  0  0  0  0  0  0
  1  2  2  0  0  0
  2  9  1  0  0  0
  9 10  2  0  0  0
 10 11  1  0  0  0
 11 12  1  0  0  0
 12 13  2  0  0  0
 13 14  1  0  0  0
 14 15  1  0  0  0
 14 16  2  0  0  0
 16 17  1  0  0  0
 17 18  2  0  0  0
  2  3  1  0  0  0
  3  4  1  0  0  0
  4  5  1  0  0  0
  5  6  1  0  0  0
  6 20  1  0  0  0
 20 21  1  0  0  0
 21 22  2  0  0  0
 21 23  1  0  0  0
 23 24  1  0  0  0
 24 25  2  0  0  0
 25 26  1  0  0  0
 26 27  2  0  0  0
 27 28  1  0  0  0
 28 29  2  0  0  0
  6  7  1  0  0  0
  7  8  1  0  0  0
 18  9  1  0  0  0
  8  3  1  0  0  0
 18 12  1  0  0  0
 29 20  1  0  0  0
 29 24  1  0  0  0
 11 19  1  0  0  0
 23 30  1  0  0  0
M  END
> <minimizedAffinity>
-10.63787

$$$$
OCNT-2312607


 25 28  0  0  0  0  0  0  0  0999 V2000
   -5.6404   28.5251    6.3309 C   0  0  0  0  0  0  0  0  0  0  0  0
   -6.8569   28.6239    6.5029 O   0  0  0  0  0  0  0  0  0  0  0  0
   -5.1364   27.5982    5.4355 N   0  0  0  0  0  0  0  0  0  0  0  0
   -3.7677   27.1079    5.3457 C   0  0  0  0  0  0  0  0  0  0  0  0
   -3.9069   25.7155    4.7417 C   0  0  0  0  0  0  0  0  0  0  0  0
   -5.1297   25.8670    3.8290 C   0  0  0  0  0  0  0  0  0  0  0  0
   -6.0412   26.7560    4.6733 C   0  0  0  0  0  0  0  0  0  0  0  0
   -4.4894   29.4658    8.4679 C   0  0  0  0  0  0  0  0  0  0  0  0
   -4.7324   29.3313    7.1145 C   0  0  0  0  0  0  0  0  0  0  0  0
   -3.7870   30.1237    6.4922 N   0  0  0  0  0  0  0  0  0  0  0  0
   -3.0451   30.8349    7.4051 C   0  0  0  0  0  0  0  0  0  0  0  0
   -2.0305   31.7788    7.2091 C   0  0  0  0  0  0  0  0  0  0  0  0
   -1.4420   32.3393    8.3471 C   0  0  0  0  0  0  0  0  0  0  0  0
   -1.8509   31.9669    9.6260 C   0  0  0  0  0  0  0  0  0  0  0  0
   -2.8638   31.0173    9.8023 C   0  0  0  0  0  0  0  0  0  0  0  0
   -3.4737   30.4409    8.6705 C   0  0  0  0  0  0  0  0  0  0  0  0
   -3.6833   30.1793    5.4877 H   0  0  0  0  0  0  0  0  0  0  0  0
   -6.2511   29.5254    9.9241 C   0  0  0  0  0  0  0  0  0  0  0  0
   -5.1391   28.7805    9.4330 O   0  0  0  0  0  0  0  0  0  0  0  0
   -5.7993   24.5493    3.4455 C   0  0  0  0  0  0  0  0  0  0  0  0
   -6.1728   24.5120    1.9949 C   0  0  0  0  0  0  0  0  0  0  0  0
   -5.8573   25.4527    1.1292 N   0  0  0  0  0  0  0  0  0  0  0  0
   -6.3494   25.1216   -0.1173 C   0  0  0  0  0  0  0  0  0  0  0  0
   -7.0366   23.9300   -0.1886 C   0  0  0  0  0  0  0  0  0  0  0  0
   -7.0716   23.1905    1.3563 S   0  0  0  0  0  0  0  0  0  0  0  0
 18 19  1  0  0  0
 19  8  1  0  0  0
  8  9  2  0  0  0
  9  1  1  0  0  0
  1  2  2  0  0  0
  1  3  1  0  0  0
  3  4  1  0  0  0
  4  5  1  0  0  0
  5  6  1  0  0  0
  6 20  1  0  0  0
 20 21  1  0  0  0
 21 22  2  0  0  0
 22 23  1  0  0  0
 23 24  2  0  0  0
 24 25  1  0  0  0
  6  7  1  0  0  0
  9 10  1  0  0  0
 10 11  1  0  0  0
 11 12  2  0  0  0
 12 13  1  0  0  0
 13 14  2  0  0  0
 14 15  1  0  0  0
 15 16  2  0  0  0
 16  8  1  0  0  0
  7  3  1  0  0  0
 16 11  1  0  0  0
 25 21  1  0  0  0
 10 17  1  0  0  0
M  END
> <minimizedAffinity>
-8.73976

$$$$
OCNT-2312608


 23 25  0  0  0  0  0  0  0  0999 V2000
   -3.8723   25.3642    3.8696 N   0  0  0  0  0  0  0  0  0  0  0  0
   -4.6652   25.0148    4.4015 H   0  0  0  0  0  0  0  0  0  0  0  0
   -2.9739   26.0242    4.7172 C   0  0  0  0  0  0  0  0  0  0  0  0
   -1.6172   25.8115    4.5187 C   0  0  0  0  0  0  0  0  0  0  0  0
   -0.7014   26.4820    5.3222 C   0  0  0  0  0  0  0  0  0  0  0  0
   -1.1417   27.3534    6.2991 C   0  0  0  0  0  0  0  0  0  0  0  0
   -0.2427   27.9981    7.0772 N   0  0  0  0  0  0  0  0  0  0  0  0
   -0.7598   28.8292    8.0025 C   0  0  0  0  0  0  0  0  0  0  0  0
   -2.1197   29.0027    8.1429 C   0  0  0  0  0  0  0  0  0  0  0  0
   -3.0174   28.3555    7.3672 N   0  0  0  0  0  0  0  0  0  0  0  0
   -2.5415   27.5242    6.4322 C   0  0  0  0  0  0  0  0  0  0  0  0
   -3.4183   26.8774    5.6567 N   0  0  0  0  0  0  0  0  0  0  0  0
   -4.3009   26.0964    2.6558 C   0  0  0  0  0  0  0  0  0  0  0  0
   -5.7753   26.5576    2.7606 C   0  0  0  0  0  0  0  0  0  0  0  0
   -6.0393   29.1078    3.5346 C   0  0  0  0  0  0  0  0  0  0  0  0
   -5.9225   27.9630    3.1911 C   0  0  0  0  0  0  0  0  0  0  0  0
   -4.0962   25.1919    1.4139 C   0  0  0  0  0  0  0  0  0  0  0  0
   -5.3857   24.6105    0.8749 C   0  0  0  0  0  0  0  0  0  0  0  0
   -5.8841   23.3986    1.3707 C   0  0  0  0  0  0  0  0  0  0  0  0
   -7.0691   22.8603    0.8668 C   0  0  0  0  0  0  0  0  0  0  0  0
   -7.7661   23.5264   -0.1391 C   0  0  0  0  0  0  0  0  0  0  0  0
   -7.2768   24.7293   -0.6443 C   0  0  0  0  0  0  0  0  0  0  0  0
   -6.0914   25.2688   -0.1419 C   0  0  0  0  0  0  0  0  0  0  0  0
 15 16  3  0  0  0
 16 14  1  0  0  0
 14 13  1  0  0  0
 13 17  1  0  0  0
 17 18  1  0  0  0
 18 19  2  0  0  0
 19 20  1  0  0  0
 20 21  2  0  0  0
 21 22  1  0  0  0
 22 23  2  0  0  0
 13  1  1  0  0  0
  1  3  1  0  0  0
  3  4  2  0  0  0
  4  5  1  0  0  0
  5  6  2  0  0  0
  6  7  1  0  0  0
  7  8  2  0  0  0
  8  9  1  0  0  0
  9 10  2  0  0  0
 10 11  1  0  0  0
 11 12  2  0  0  0
 23 18  1  0  0  0
 12  3  1  0  0  0
 11  6  1  0  0  0
  1  2  1  0  0  0
M  END
> <minimizedAffinity>
-9.02560

$$$$
OCNT-2312650


 25 27  0  0  0  0  0  0  0  0999 V2000
   -6.6170   28.9603    7.7883 O   0  0  0  0  0  0  0  0  0  0  0  0
   -6.1460   29.5683    6.8344 C   0  0  0  0  0  0  0  0  0  0  0  0
   -5.6884   30.8688    6.9055 N   0  0  0  0  0  0  0  0  0  0  0  0
   -5.6107   31.3872    6.0405 H   0  0  0  0  0  0  0  0  0  0  0  0
   -6.0796   28.9211    5.4957 C   0  0  0  0  0  0  0  0  0  0  0  0
   -6.1449   29.6660    4.3134 C   0  0  0  0  0  0  0  0  0  0  0  0
   -6.0746   29.0161    3.0826 C   0  0  0  0  0  0  0  0  0  0  0  0
   -5.9313   27.6265    3.0312 C   0  0  0  0  0  0  0  0  0  0  0  0
   -5.8456   26.8625    4.2057 C   0  0  0  0  0  0  0  0  0  0  0  0
   -5.9172   27.5287    5.4376 C   0  0  0  0  0  0  0  0  0  0  0  0
   -5.6835   25.4156    4.1572 C   0  0  0  0  0  0  0  0  0  0  0  0
   -5.7885   24.3770    5.0595 C   0  0  0  0  0  0  0  0  0  0  0  0
   -5.5240   23.1781    4.4445 N   0  0  0  0  0  0  0  0  0  0  0  0
   -5.2672   23.5257    3.2051 C   0  0  0  0  0  0  0  0  0  0  0  0
   -5.3435   24.8594    2.9488 O   0  0  0  0  0  0  0  0  0  0  0  0
   -5.8149   31.6256    8.1335 C   0  0  0  0  0  0  0  0  0  0  0  0
   -4.5190   32.3474    8.5024 C   0  0  0  0  0  0  0  0  0  0  0  0
   -3.2546   31.4660    8.4419 C   0  0  0  0  0  0  0  0  0  0  0  0
   -2.2876   31.7452    9.6094 C   0  0  0  0  0  0  0  0  0  0  0  0
   -0.8472   31.2948    9.3471 C   0  0  0  0  0  0  0  0  0  0  0  0
   -0.7637   30.2374    8.2652 C   0  0  0  0  0  0  0  0  0  0  0  0
    0.5242   29.8524    8.0902 F   0  0  0  0  0  0  0  0  0  0  0  0
   -1.4395   29.1304    8.6734 F   0  0  0  0  0  0  0  0  0  0  0  0
   -1.3348   30.7125    6.9377 C   0  0  0  0  0  0  0  0  0  0  0  0
   -2.5409   31.6440    7.0951 C   0  0  0  0  0  0  0  0  0  0  0  0
  1  2  2  0  0  0
  2  3  1  0  0  0
  3 16  1  0  0  0
 16 17  1  0  0  0
 17 18  1  0  0  0
 18 19  1  0  0  0
 19 20  1  0  0  0
 20 21  1  0  0  0
 21 22  1  0  0  0
 21 23  1  0  0  0
 21 24  1  0  0  0
 24 25  1  0  0  0
  2  5  1  0  0  0
  5  6  1  0  0  0
  6  7  2  0  0  0
  7  8  1  0  0  0
  8  9  2  0  0  0
  9 11  1  0  0  0
 11 12  2  0  0  0
 12 13  1  0  0  0
 13 14  2  0  0  0
 14 15  1  0  0  0
  9 10  1  0  0  0
 25 18  1  0  0  0
 10  5  2  0  0  0
 15 11  1  0  0  0
  3  4  1  0  0  0
M  END
> <minimizedAffinity>
-9.57310

$$$$
OCNT-2312662


 26 28  0  0  0  0  0  0  0  0999 V2000
   -3.3920   27.2941    4.7359 N   0  0  0  0  0  0  0  0  0  0  0  0
   -2.7393   27.0828    5.9333 C   0  0  0  0  0  0  0  0  0  0  0  0
   -2.2081   26.0209    6.2436 O   0  0  0  0  0  0  0  0  0  0  0  0
   -3.5959   28.2701    4.5343 H   0  0  0  0  0  0  0  0  0  0  0  0
   -3.3650   26.3243    3.6610 C   0  0  0  0  0  0  0  0  0  0  0  0
   -4.6765   26.2946    2.8722 C   0  0  0  0  0  0  0  0  0  0  0  0
   -5.2500   21.3090    2.9433 C   0  0  0  0  0  0  0  0  0  0  0  0
   -5.3408   22.6894    2.5238 N   0  0  0  0  0  0  0  0  0  0  0  0
   -4.7894   23.7467    3.1969 C   0  0  0  0  0  0  0  0  0  0  0  0
   -5.0826   24.9039    2.5019 C   0  0  0  0  0  0  0  0  0  0  0  0
   -5.8499   24.5180    1.3568 C   0  0  0  0  0  0  0  0  0  0  0  0
   -6.4322   25.2328    0.2890 C   0  0  0  0  0  0  0  0  0  0  0  0
   -7.1368   24.5427   -0.7029 C   0  0  0  0  0  0  0  0  0  0  0  0
   -7.2675   23.1587   -0.6445 C   0  0  0  0  0  0  0  0  0  0  0  0
   -6.6994   22.4262    0.4018 C   0  0  0  0  0  0  0  0  0  0  0  0
   -5.9946   23.1286    1.3930 C   0  0  0  0  0  0  0  0  0  0  0  0
   -2.7938   28.2921    6.8775 C   0  0  0  0  0  0  0  0  0  0  0  0
   -1.4918   29.0256    6.8852 N   0  0  0  0  0  0  0  0  0  0  0  0
   -0.6533   28.4840    7.9719 C   0  0  0  0  0  0  0  0  0  0  0  0
   -1.7159   30.4811    7.0808 C   0  0  0  0  0  0  0  0  0  0  0  0
   -1.2960   30.9580    8.4781 C   0  0  0  0  0  0  0  0  0  0  0  0
   -1.9335   32.3342    8.5858 C   0  0  0  0  0  0  0  0  0  0  0  0
   -3.2914   32.1908    7.9113 C   0  0  0  0  0  0  0  0  0  0  0  0
   -3.2012   30.9356    7.0371 C   0  0  0  0  0  0  0  0  0  0  0  0
   -3.6106   31.2352    5.7068 O   0  0  0  0  0  0  0  0  0  0  0  0
   -4.5427   31.5091    5.7471 H   0  0  0  0  0  0  0  0  0  0  0  0
  7  8  1  0  0  0
  8  9  1  0  0  0
  9 10  2  0  0  0
 10  6  1  0  0  0
  6  5  1  0  0  0
  5  1  1  0  0  0
  1  2  1  0  0  0
  2  3  2  0  0  0
  2 17  1  0  0  0
 17 18  1  0  0  0
 18 19  1  0  0  0
 18 20  1  0  0  0
 20 21  1  0  0  0
 21 22  1  0  0  0
 22 23  1  0  0  0
 23 24  1  0  0  0
 24 25  1  0  0  0
 10 11  1  0  0  0
 11 12  2  0  0  0
 12 13  1  0  0  0
 13 14  2  0  0  0
 14 15  1  0  0  0
 15 16  2  0  0  0
 16  8  1  0  0  0
 24 20  1  0  0  0
 16 11  1  0  0  0
  1  4  1  0  0  0
 25 26  1  0  0  0
M  END
> <minimizedAffinity>
-9.57561

$$$$
OCNT-2312702


 23 24  0  0  0  0  0  0  0  0999 V2000
   -5.3404   30.0886    6.1044 C   0  0  0  0  0  0  0  0  0  0  0  0
   -5.1516   28.8592    5.2350 C   0  0  0  0  0  0  0  0  0  0  0  0
   -6.0755   28.6253    4.2019 C   0  0  0  0  0  0  0  0  0  0  0  0
   -5.9501   27.5104    3.3871 C   0  0  0  0  0  0  0  0  0  0  0  0
   -4.9041   26.6156    3.6050 C   0  0  0  0  0  0  0  0  0  0  0  0
   -4.8177   25.1161    2.4313 Br  0  0  0  0  0  0  0  0  0  0  0  0
   -3.9685   26.8210    4.6511 C   0  0  0  0  0  0  0  0  0  0  0  0
   -2.8915   25.9493    4.9349 C   0  0  0  0  0  0  0  0  0  0  0  0
   -2.0173   26.2097    5.9821 C   0  0  0  0  0  0  0  0  0  0  0  0
   -2.2381   27.3419    6.7307 C   0  0  0  0  0  0  0  0  0  0  0  0
   -3.2497   28.2030    6.4989 N   0  0  0  0  0  0  0  0  0  0  0  0
   -4.1024   27.9621    5.4798 C   0  0  0  0  0  0  0  0  0  0  0  0
   -4.3683   31.1229    5.7356 N   0  0  0  0  0  0  0  0  0  0  0  0
   -4.8208   31.7400    5.0610 H   0  0  0  0  0  0  0  0  0  0  0  0
   -3.8799   31.9350    6.8768 C   0  0  0  0  0  0  0  0  0  0  0  0
   -2.3541   31.7799    6.9929 C   0  0  0  0  0  0  0  0  0  0  0  0
   -1.6160   32.3478    7.7842 O   0  0  0  0  0  0  0  0  0  0  0  0
   -1.8454   30.8927    6.1109 O   0  0  0  0  0  0  0  0  0  0  0  0
   -0.8934   30.8595    6.3370 H   0  0  0  0  0  0  0  0  0  0  0  0
   -4.5784   31.6950    8.2510 C   0  0  0  0  0  0  0  0  0  0  0  0
   -3.7864   30.6628    9.0744 C   0  0  0  0  0  0  0  0  0  0  0  0
   -4.9825   34.2388    8.1808 C   0  0  0  0  0  0  0  0  0  0  0  0
   -4.7388   33.0108    9.0490 C   0  0  0  0  0  0  0  0  0  0  0  0
 22 23  1  0  0  0
 23 20  1  0  0  0
 20 21  1  0  0  0
 20 15  1  0  0  0
 15 13  1  0  0  0
 13  1  1  0  0  0
  1  2  1  0  0  0
  2  3  1  0  0  0
  3  4  2  0  0  0
  4  5  1  0  0  0
  5  6  1  0  0  0
  5  7  2  0  0  0
  7  8  1  0  0  0
  8  9  2  0  0  0
  9 10  1  0  0  0
 10 11  2  0  0  0
 11 12  1  0  0  0
 15 16  1  0  0  0
 16 17  2  0  0  0
 16 18  1  0  0  0
 12  2  2  0  0  0
 12  7  1  0  0  0
 13 14  1  0  0  0
 18 19  1  0  0  0
M  END
> <minimizedAffinity>
-7.93822

$$$$
OCNT-2312704


 22 23  0  0  0  0  0  0  0  0999 V2000
   -4.5111   30.5804    5.6569 N   0  0  0  0  0  0  0  0  0  0  0  0
   -3.9627   30.0543    4.9856 H   0  0  0  0  0  0  0  0  0  0  0  0
   -3.6100   31.0281    6.6105 C   0  0  0  0  0  0  0  0  0  0  0  0
   -3.8212   32.1739    7.2698 N   0  0  0  0  0  0  0  0  0  0  0  0
   -2.8934   32.5493    8.1660 C   0  0  0  0  0  0  0  0  0  0  0  0
   -1.7646   31.8182    8.4350 C   0  0  0  0  0  0  0  0  0  0  0  0
   -1.6217   30.6426    7.7218 C   0  0  0  0  0  0  0  0  0  0  0  0
   -2.5473   30.2418    6.8108 N   0  0  0  0  0  0  0  0  0  0  0  0
   -0.3974   29.7796    7.9705 C   0  0  0  0  0  0  0  0  0  0  0  0
    0.3899   30.1976    9.0008 F   0  0  0  0  0  0  0  0  0  0  0  0
   -0.7234   28.4835    8.2514 F   0  0  0  0  0  0  0  0  0  0  0  0
    0.4211   29.7179    6.8786 F   0  0  0  0  0  0  0  0  0  0  0  0
   -5.6849   29.9101    6.1938 C   0  0  0  0  0  0  0  0  0  0  0  0
   -6.1255   29.6625    3.7064 C   0  0  0  0  0  0  0  0  0  0  0  0
   -6.3789   29.0713    5.0996 C   0  0  0  0  0  0  0  0  0  0  0  0
   -5.8678   27.6131    5.1910 C   0  0  0  0  0  0  0  0  0  0  0  0
   -4.5208   27.3973    4.6343 N   0  0  0  0  0  0  0  0  0  0  0  0
   -3.6005   26.9183    5.6910 C   0  0  0  0  0  0  0  0  0  0  0  0
   -2.1986   26.6321    5.1315 C   0  0  0  0  0  0  0  0  0  0  0  0
   -2.2514   25.6579    4.0818 O   0  0  0  0  0  0  0  0  0  0  0  0
   -3.0982   26.1273    3.0248 C   0  0  0  0  0  0  0  0  0  0  0  0
   -4.5229   26.4096    3.5317 C   0  0  0  0  0  0  0  0  0  0  0  0
 14 15  1  0  0  0
 15 13  1  0  0  0
 13  1  1  0  0  0
  1  3  1  0  0  0
  3  4  2  0  0  0
  4  5  1  0  0  0
  5  6  2  0  0  0
  6  7  1  0  0  0
  7  9  1  0  0  0
  9 10  1  0  0  0
  9 11  1  0  0  0
  9 12  1  0  0  0
  7  8  2  0  0  0
 15 16  1  0  0  0
 16 17  1  0  0  0
 17 18  1  0  0  0
 18 19  1  0  0  0
 19 20  1  0  0  0
 20 21  1  0  0  0
 21 22  1  0  0  0
  8  3  1  0  0  0
 22 17  1  0  0  0
  1  2  1  0  0  0
M  END
> <minimizedAffinity>
-7.42693

$$$$
OCNT-2312712


 27 29  0  0  0  0  0  0  0  0999 V2000
   -2.6559   26.1066    4.7575 C   0  0  0  0  0  0  0  0  0  0  0  0
   -1.2770   25.7157    4.2370 C   0  0  0  0  0  0  0  0  0  0  0  0
   -2.6559   28.7039    7.2255 C   0  0  0  0  0  0  0  0  0  0  0  0
   -1.7312   27.8853    7.7576 N   0  0  0  0  0  0  0  0  0  0  0  0
   -1.6489   26.8354    6.8485 O   0  0  0  0  0  0  0  0  0  0  0  0
   -2.5329   27.1170    5.8506 C   0  0  0  0  0  0  0  0  0  0  0  0
   -3.1781   28.2489    6.0307 N   0  0  0  0  0  0  0  0  0  0  0  0
   -3.9445   32.3806    9.0097 C   0  0  0  0  0  0  0  0  0  0  0  0
   -4.5327   31.9148    7.8276 C   0  0  0  0  0  0  0  0  0  0  0  0
   -4.1091   30.7144    7.2480 C   0  0  0  0  0  0  0  0  0  0  0  0
   -3.0876   29.9566    7.8368 C   0  0  0  0  0  0  0  0  0  0  0  0
   -2.4976   30.4284    9.0185 C   0  0  0  0  0  0  0  0  0  0  0  0
   -2.9247   31.6266    9.6009 C   0  0  0  0  0  0  0  0  0  0  0  0
   -4.8270   34.6974    8.6034 C   0  0  0  0  0  0  0  0  0  0  0  0
   -4.4154   33.6653    9.6430 C   0  0  0  0  0  0  0  0  0  0  0  0
   -3.4444   26.7094    3.6701 N   0  0  0  0  0  0  0  0  0  0  0  0
   -2.9394   27.2264    2.9475 H   0  0  0  0  0  0  0  0  0  0  0  0
   -4.8443   25.9570    3.1525 S   0  0  0  0  0  0  0  0  0  0  0  0
   -5.1176   24.9590    4.1642 O   0  0  0  0  0  0  0  0  0  0  0  0
   -5.7905   27.0018    2.8284 O   0  0  0  0  0  0  0  0  0  0  0  0
   -4.2703   25.1454    1.6512 C   0  0  0  0  0  0  0  0  0  0  0  0
   -5.4394   24.4987    0.9581 C   0  0  0  0  0  0  0  0  0  0  0  0
   -5.8436   23.2001    1.3038 C   0  0  0  0  0  0  0  0  0  0  0  0
   -6.9240   22.5992    0.6561 C   0  0  0  0  0  0  0  0  0  0  0  0
   -7.6092   23.2873   -0.3433 C   0  0  0  0  0  0  0  0  0  0  0  0
   -7.2137   24.5759   -0.6986 C   0  0  0  0  0  0  0  0  0  0  0  0
   -6.1334   25.1796   -0.0530 C   0  0  0  0  0  0  0  0  0  0  0  0
 14 15  1  0  0  0
 15  8  1  0  0  0
  8  9  1  0  0  0
  9 10  2  0  0  0
 10 11  1  0  0  0
 11  3  1  0  0  0
  3  4  2  0  0  0
  4  5  1  0  0  0
  5  6  1  0  0  0
  6  1  1  0  0  0
  1  2  1  0  0  0
  1 16  1  0  0  0
 16 18  1  0  0  0
 18 19  2  0  0  0
 18 20  2  0  0  0
 18 21  1  0  0  0
 21 22  1  0  0  0
 22 23  2  0  0  0
 23 24  1  0  0  0
 24 25  2  0  0  0
 25 26  1  0  0  0
 26 27  2  0  0  0
  6  7  2  0  0  0
 11 12  2  0  0  0
 12 13  1  0  0  0
 13  8  2  0  0  0
  7  3  1  0  0  0
 27 22  1  0  0  0
 16 17  1  0  0  0
M  END
> <minimizedAffinity>
-10.09036

$$$$
OCNT-2312713


 23 25  0  0  0  0  0  0  0  0999 V2000
   -5.7309   29.3888    6.2610 C   0  0  0  0  0  0  0  0  0  0  0  0
   -6.5046   29.9375    5.0421 C   0  0  0  0  0  0  0  0  0  0  0  0
   -6.1158   28.9850    3.9163 C   0  0  0  0  0  0  0  0  0  0  0  0
   -5.9432   27.7038    4.5796 N   0  0  0  0  0  0  0  0  0  0  0  0
   -5.7405   26.4774    3.9918 C   0  0  0  0  0  0  0  0  0  0  0  0
   -5.6033   25.4510    4.6559 O   0  0  0  0  0  0  0  0  0  0  0  0
   -5.9504   27.8709    6.0228 C   0  0  0  0  0  0  0  0  0  0  0  0
   -3.2708   30.1269    9.0581 N   0  0  0  0  0  0  0  0  0  0  0  0
   -4.2083   31.1057    8.4682 C   0  0  0  0  0  0  0  0  0  0  0  0
   -4.1928   31.1895    6.9177 C   0  0  0  0  0  0  0  0  0  0  0  0
   -4.3299   29.8875    6.2140 N   0  0  0  0  0  0  0  0  0  0  0  0
   -3.3332   28.9644    6.7976 C   0  0  0  0  0  0  0  0  0  0  0  0
   -3.4046   28.8410    8.3371 C   0  0  0  0  0  0  0  0  0  0  0  0
   -1.7318   32.0112    9.5949 C   0  0  0  0  0  0  0  0  0  0  0  0
   -1.8753   30.5941    9.0484 C   0  0  0  0  0  0  0  0  0  0  0  0
   -5.7062   26.4687    2.4748 C   0  0  0  0  0  0  0  0  0  0  0  0
   -4.8953   25.2917    1.9359 C   0  0  0  0  0  0  0  0  0  0  0  0
   -5.7411   24.3866    1.0767 C   0  0  0  0  0  0  0  0  0  0  0  0
   -6.5258   24.9087    0.0456 C   0  0  0  0  0  0  0  0  0  0  0  0
   -7.3044   24.0388   -0.7025 C   0  0  0  0  0  0  0  0  0  0  0  0
   -7.3571   22.7062   -0.4927 N   0  0  0  0  0  0  0  0  0  0  0  0
   -6.5918   22.2224    0.5088 C   0  0  0  0  0  0  0  0  0  0  0  0
   -5.7810   23.0102    1.3118 C   0  0  0  0  0  0  0  0  0  0  0  0
 14 15  1  0  0  0
 15  8  1  0  0  0
  8  9  1  0  0  0
  9 10  1  0  0  0
 10 11  1  0  0  0
 11  1  1  0  0  0
  1  2  1  0  0  0
  2  3  1  0  0  0
  3  4  1  0  0  0
  4  5  1  0  0  0
  5  6  2  0  0  0
  5 16  1  0  0  0
 16 17  1  0  0  0
 17 18  1  0  0  0
 18 19  2  0  0  0
 19 20  1  0  0  0
 20 21  2  0  0  0
 21 22  1  0  0  0
 22 23  2  0  0  0
  4  7  1  0  0  0
 11 12  1  0  0  0
 12 13  1  0  0  0
 13  8  1  0  0  0
  7  1  1  0  0  0
 23 18  1  0  0  0
M  END
> <minimizedAffinity>
-8.25970

$$$$
OCNT-2312719


 29 31  0  0  0  0  0  0  0  0999 V2000
   -4.8142   26.4531    5.3781 N   0  0  0  0  0  0  0  0  0  0  0  0
   -3.5539   26.9947    5.5144 C   0  0  0  0  0  0  0  0  0  0  0  0
   -2.5476   26.6666    4.9022 O   0  0  0  0  0  0  0  0  0  0  0  0
   -3.5519   27.9844    6.4744 N   0  0  0  0  0  0  0  0  0  0  0  0
   -5.4749   26.7171    6.0931 H   0  0  0  0  0  0  0  0  0  0  0  0
   -4.4233   28.4713    6.6183 H   0  0  0  0  0  0  0  0  0  0  0  0
   -2.3501   28.7576    6.7775 C   0  0  0  0  0  0  0  0  0  0  0  0
   -1.5238   27.9790    7.7985 C   0  0  0  0  0  0  0  0  0  0  0  0
   -0.4441   28.8583    8.4133 C   0  0  0  0  0  0  0  0  0  0  0  0
    0.6421   29.3000    7.4346 C   0  0  0  0  0  0  0  0  0  0  0  0
   -1.0064   29.9929    9.0823 O   0  0  0  0  0  0  0  0  0  0  0  0
   -2.0061   30.6510    8.4178 C   0  0  0  0  0  0  0  0  0  0  0  0
   -2.3301   31.9118    8.9236 C   0  0  0  0  0  0  0  0  0  0  0  0
   -3.3091   32.6875    8.3057 C   0  0  0  0  0  0  0  0  0  0  0  0
   -3.9626   32.2041    7.1763 C   0  0  0  0  0  0  0  0  0  0  0  0
   -3.6507   30.9377    6.6785 C   0  0  0  0  0  0  0  0  0  0  0  0
   -2.6875   30.1314    7.3106 C   0  0  0  0  0  0  0  0  0  0  0  0
   -6.0342   23.6045    2.5250 C   0  0  0  0  0  0  0  0  0  0  0  0
   -5.7146   24.9156    2.1523 C   0  0  0  0  0  0  0  0  0  0  0  0
   -5.3123   25.8379    3.1186 C   0  0  0  0  0  0  0  0  0  0  0  0
   -5.2377   25.4658    4.4645 C   0  0  0  0  0  0  0  0  0  0  0  0
   -5.5725   24.1556    4.8304 C   0  0  0  0  0  0  0  0  0  0  0  0
   -5.9850   23.2160    3.8723 C   0  0  0  0  0  0  0  0  0  0  0  0
   -6.4468   22.6849    1.4449 C   0  0  0  0  0  0  0  0  0  0  0  0
   -5.8013   21.7002    1.1219 O   0  0  0  0  0  0  0  0  0  0  0  0
   -7.7561   23.0515   -0.4489 C   0  0  0  0  0  0  0  0  0  0  0  0
   -7.6662   23.0421    0.9749 O   0  0  0  0  0  0  0  0  0  0  0  0
   -6.3781   21.9362    4.1655 O   0  0  0  0  0  0  0  0  0  0  0  0
   -7.6074   21.7620    4.8600 C   0  0  0  0  0  0  0  0  0  0  0  0
 26 27  1  0  0  0
 27 24  1  0  0  0
 24 25  2  0  0  0
 24 18  1  0  0  0
 18 19  1  0  0  0
 19 20  2  0  0  0
 20 21  1  0  0  0
 21  1  1  0  0  0
  1  2  1  0  0  0
  2  3  2  0  0  0
  2  4  1  0  0  0
  4  7  1  0  0  0
  7  8  1  0  0  0
  8  9  1  0  0  0
  9 10  1  0  0  0
  9 11  1  0  0  0
 11 12  1  0  0  0
 12 13  2  0  0  0
 13 14  1  0  0  0
 14 15  2  0  0  0
 15 16  1  0  0  0
 16 17  2  0  0  0
 21 22  2  0  0  0
 22 23  1  0  0  0
 23 28  1  0  0  0
 28 29  1  0  0  0
 23 18  2  0  0  0
 17  7  1  0  0  0
 17 12  1  0  0  0
  1  5  1  0  0  0
  4  6  1  0  0  0
M  END
> <minimizedAffinity>
-9.60529

$$$$
OCNT-2312721


 28 30  0  0  0  0  0  0  0  0999 V2000
   -4.2833   26.0818    5.1903 C   0  0  0  0  0  0  0  0  0  0  0  0
   -5.1216   26.9713    5.2700 O   0  0  0  0  0  0  0  0  0  0  0  0
   -4.6035   24.7421    5.1174 N   0  0  0  0  0  0  0  0  0  0  0  0
   -3.8196   24.1014    5.2435 H   0  0  0  0  0  0  0  0  0  0  0  0
   -5.9762   24.2549    5.3073 C   0  0  0  0  0  0  0  0  0  0  0  0
   -6.7717   24.4146    4.0118 C   0  0  0  0  0  0  0  0  0  0  0  0
   -6.4666   23.3003    3.0521 C   0  0  0  0  0  0  0  0  0  0  0  0
   -6.8194   23.4307    1.7011 C   0  0  0  0  0  0  0  0  0  0  0  0
   -6.5464   22.4043    0.7962 C   0  0  0  0  0  0  0  0  0  0  0  0
   -5.9231   21.2384    1.2339 C   0  0  0  0  0  0  0  0  0  0  0  0
   -5.5800   21.0974    2.5779 C   0  0  0  0  0  0  0  0  0  0  0  0
   -5.8613   22.1180    3.4866 C   0  0  0  0  0  0  0  0  0  0  0  0
   -5.4817   21.8802    4.7778 O   0  0  0  0  0  0  0  0  0  0  0  0
   -5.9843   22.7914    5.7799 C   0  0  0  0  0  0  0  0  0  0  0  0
   -7.3519   22.3575    6.3054 C   0  0  0  0  0  0  0  0  0  0  0  0
   -7.2454   21.7560    7.5139 F   0  0  0  0  0  0  0  0  0  0  0  0
   -8.1678   23.4267    6.4688 F   0  0  0  0  0  0  0  0  0  0  0  0
   -7.9906   21.4980    5.4829 F   0  0  0  0  0  0  0  0  0  0  0  0
   -0.8994   27.4443    6.1121 C   0  0  0  0  0  0  0  0  0  0  0  0
   -0.1215   26.8185    5.1336 C   0  0  0  0  0  0  0  0  0  0  0  0
   -0.7532   25.9870    4.2256 C   0  0  0  0  0  0  0  0  0  0  0  0
   -2.0798   25.7455    4.2299 N   0  0  0  0  0  0  0  0  0  0  0  0
   -2.8131   26.3701    5.1945 C   0  0  0  0  0  0  0  0  0  0  0  0
   -2.2755   27.2175    6.1478 C   0  0  0  0  0  0  0  0  0  0  0  0
   -0.3134   28.3536    7.1306 C   0  0  0  0  0  0  0  0  0  0  0  0
    0.7131   28.9882    6.9526 O   0  0  0  0  0  0  0  0  0  0  0  0
   -1.4657   29.6765    8.6704 C   0  0  0  0  0  0  0  0  0  0  0  0
   -1.0741   28.3671    8.2529 O   0  0  0  0  0  0  0  0  0  0  0  0
 27 28  1  0  0  0
 28 25  1  0  0  0
 25 26  2  0  0  0
 25 19  1  0  0  0
 19 20  2  0  0  0
 20 21  1  0  0  0
 21 22  2  0  0  0
 22 23  1  0  0  0
 23  1  1  0  0  0
  1  2  2  0  0  0
  1  3  1  0  0  0
  3  5  1  0  0  0
  5  6  1  0  0  0
  6  7  1  0  0  0
  7  8  2  0  0  0
  8  9  1  0  0  0
  9 10  2  0  0  0
 10 11  1  0  0  0
 11 12  2  0  0  0
 12 13  1  0  0  0
 13 14  1  0  0  0
 14 15  1  0  0  0
 15 16  1  0  0  0
 15 17  1  0  0  0
 15 18  1  0  0  0
 23 24  2  0  0  0
 24 19  1  0  0  0
 14  5  1  0  0  0
 12  7  1  0  0  0
  3  4  1  0  0  0
M  END
> <minimizedAffinity>
-9.14403

$$$$
OCNT-2312735


 26 29  0  0  0  0  0  0  0  0999 V2000
   -5.6681   27.4172    3.5194 C   0  0  0  0  0  0  0  0  0  0  0  0
   -4.3480   27.0055    4.1046 C   0  0  0  0  0  0  0  0  0  0  0  0
   -4.0311   27.3323    5.4359 C   0  0  0  0  0  0  0  0  0  0  0  0
   -2.8150   26.9555    6.0196 C   0  0  0  0  0  0  0  0  0  0  0  0
   -1.9028   26.2397    5.2258 C   0  0  0  0  0  0  0  0  0  0  0  0
   -2.1954   25.9100    3.9002 C   0  0  0  0  0  0  0  0  0  0  0  0
   -3.4068   26.3115    3.3376 C   0  0  0  0  0  0  0  0  0  0  0  0
   -2.4429   27.2758    7.3384 N   0  0  0  0  0  0  0  0  0  0  0  0
   -2.8030   26.6292    8.0234 H   0  0  0  0  0  0  0  0  0  0  0  0
   -1.6929   28.3296    7.8815 C   0  0  0  0  0  0  0  0  0  0  0  0
   -2.2999   29.4274    8.5132 C   0  0  0  0  0  0  0  0  0  0  0  0
   -3.6028   29.9067    8.8117 C   0  0  0  0  0  0  0  0  0  0  0  0
   -4.9154   29.2988    8.4938 C   0  0  0  0  0  0  0  0  0  0  0  0
   -3.5606   31.0735    9.4678 N   0  0  0  0  0  0  0  0  0  0  0  0
   -2.2158   31.3778    9.6016 O   0  0  0  0  0  0  0  0  0  0  0  0
   -1.4620   30.3973    9.0320 C   0  0  0  0  0  0  0  0  0  0  0  0
   -0.1229   30.4172    9.0068 N   0  0  0  0  0  0  0  0  0  0  0  0
    0.3611   29.3371    8.3908 C   0  0  0  0  0  0  0  0  0  0  0  0
   -0.3344   28.3231    7.8434 N   0  0  0  0  0  0  0  0  0  0  0  0
   -3.7272   25.9703    2.0433 O   0  0  0  0  0  0  0  0  0  0  0  0
   -4.4812   24.8370    1.8627 C   0  0  0  0  0  0  0  0  0  0  0  0
   -4.3164   23.6587    2.5881 C   0  0  0  0  0  0  0  0  0  0  0  0
   -5.1197   22.5593    2.2924 C   0  0  0  0  0  0  0  0  0  0  0  0
   -6.0509   22.6772    1.2719 C   0  0  0  0  0  0  0  0  0  0  0  0
   -6.2241   23.7981    0.5385 N   0  0  0  0  0  0  0  0  0  0  0  0
   -5.4267   24.8494    0.8461 C   0  0  0  0  0  0  0  0  0  0  0  0
  1  2  1  0  0  0
  2  3  1  0  0  0
  3  4  2  0  0  0
  4  8  1  0  0  0
  8 10  1  0  0  0
 10 11  2  0  0  0
 11 12  1  0  0  0
 12 13  1  0  0  0
 12 14  2  0  0  0
 14 15  1  0  0  0
 15 16  1  0  0  0
 16 17  2  0  0  0
 17 18  1  0  0  0
 18 19  2  0  0  0
  4  5  1  0  0  0
  5  6  2  0  0  0
  6  7  1  0  0  0
  7 20  1  0  0  0
 20 21  1  0  0  0
 21 22  1  0  0  0
 22 23  2  0  0  0
 23 24  1  0  0  0
 24 25  2  0  0  0
 25 26  1  0  0  0
  7  2  2  0  0  0
 26 21  2  0  0  0
 19 10  1  0  0  0
 16 11  1  0  0  0
  8  9  1  0  0  0
M  END
> <minimizedAffinity>
-9.64523

$$$$
OCNT-2312738


 23 24  0  0  0  0  0  0  0  0999 V2000
   -3.2730   26.7137    4.7452 C   0  0  0  0  0  0  0  0  0  0  0  0
   -4.6043   26.7644    4.3350 C   0  0  0  0  0  0  0  0  0  0  0  0
   -4.6227   26.2508    3.0599 N   0  0  0  0  0  0  0  0  0  0  0  0
   -3.4085   25.8739    2.6219 N   0  0  0  0  0  0  0  0  0  0  0  0
   -2.5996   26.1350    3.6465 C   0  0  0  0  0  0  0  0  0  0  0  0
   -2.8212   28.3977    6.4032 N   0  0  0  0  0  0  0  0  0  0  0  0
   -2.6377   27.0971    5.9995 C   0  0  0  0  0  0  0  0  0  0  0  0
   -1.9591   26.2964    6.6343 O   0  0  0  0  0  0  0  0  0  0  0  0
   -3.2657   29.0513    5.7699 H   0  0  0  0  0  0  0  0  0  0  0  0
   -1.0642   29.9651    7.2897 C   0  0  0  0  0  0  0  0  0  0  0  0
   -1.1233   30.9726    8.3247 O   0  0  0  0  0  0  0  0  0  0  0  0
   -2.2240   30.6683    9.1880 C   0  0  0  0  0  0  0  0  0  0  0  0
   -3.1616   29.8010    8.3844 C   0  0  0  0  0  0  0  0  0  0  0  0
   -2.1888   28.9501    7.5923 C   0  0  0  0  0  0  0  0  0  0  0  0
    1.1656   29.1133    8.2129 C   0  0  0  0  0  0  0  0  0  0  0  0
    0.3584   29.4881    7.2118 C   0  0  0  0  0  0  0  0  0  0  0  0
   -5.8192   27.1997    5.0535 C   0  0  0  0  0  0  0  0  0  0  0  0
   -6.6740   26.1484    5.2021 F   0  0  0  0  0  0  0  0  0  0  0  0
   -6.4968   28.1235    4.3231 F   0  0  0  0  0  0  0  0  0  0  0  0
   -5.7416   26.0806    2.1447 C   0  0  0  0  0  0  0  0  0  0  0  0
   -5.6076   24.8538    1.2266 C   0  0  0  0  0  0  0  0  0  0  0  0
   -6.2414   25.1544   -0.1332 C   0  0  0  0  0  0  0  0  0  0  0  0
   -6.2500   23.6042    1.8312 C   0  0  0  0  0  0  0  0  0  0  0  0
 15 16  2  0  0  0
 16 10  1  0  0  0
 10 11  1  0  0  0
 11 12  1  0  0  0
 12 13  1  0  0  0
 13 14  1  0  0  0
 14  6  1  0  0  0
  6  7  1  0  0  0
  7  8  2  0  0  0
  7  1  1  0  0  0
  1  2  2  0  0  0
  2 17  1  0  0  0
 17 18  1  0  0  0
 17 19  1  0  0  0
  2  3  1  0  0  0
  3 20  1  0  0  0
 20 21  1  0  0  0
 21 22  1  0  0  0
 21 23  1  0  0  0
  3  4  1  0  0  0
  4  5  2  0  0  0
 14 10  1  0  0  0
  5  1  1  0  0  0
  6  9  1  0  0  0
M  END
> <minimizedAffinity>
-7.91761

$$$$
OCNT-2312743


 28 30  0  0  0  0  0  0  0  0999 V2000
   -5.0500   25.7753    5.2721 N   0  0  0  0  0  0  0  0  0  0  0  0
   -3.8376   26.4133    5.4053 C   0  0  0  0  0  0  0  0  0  0  0  0
   -2.7872   26.1292    4.8484 O   0  0  0  0  0  0  0  0  0  0  0  0
   -3.9363   27.4458    6.3177 N   0  0  0  0  0  0  0  0  0  0  0  0
   -5.6673   25.8621    6.0650 H   0  0  0  0  0  0  0  0  0  0  0  0
   -4.8382   27.9030    6.3371 H   0  0  0  0  0  0  0  0  0  0  0  0
   -2.8223   28.3658    6.5021 C   0  0  0  0  0  0  0  0  0  0  0  0
   -3.2531   29.6466    7.1690 C   0  0  0  0  0  0  0  0  0  0  0  0
   -4.3230   30.4679    6.8396 C   0  0  0  0  0  0  0  0  0  0  0  0
   -4.5236   31.6340    7.5810 C   0  0  0  0  0  0  0  0  0  0  0  0
   -3.6520   31.9736    8.6260 C   0  0  0  0  0  0  0  0  0  0  0  0
   -2.5652   31.1553    8.9392 C   0  0  0  0  0  0  0  0  0  0  0  0
   -2.3796   29.9945    8.2050 C   0  0  0  0  0  0  0  0  0  0  0  0
   -1.2577   29.0085    8.3319 C   0  0  0  0  0  0  0  0  0  0  0  0
   -1.7830   27.8117    7.5212 C   0  0  0  0  0  0  0  0  0  0  0  0
   -2.3866   26.8591    8.4172 O   0  0  0  0  0  0  0  0  0  0  0  0
   -2.7544   26.1638    7.8428 H   0  0  0  0  0  0  0  0  0  0  0  0
   -5.7835   23.5154    2.6202 N   0  0  0  0  0  0  0  0  0  0  0  0
   -5.9332   22.6722    3.6561 N   0  0  0  0  0  0  0  0  0  0  0  0
   -5.6771   23.4254    4.7282 C   0  0  0  0  0  0  0  0  0  0  0  0
   -5.7217   22.8184    6.0814 C   0  0  0  0  0  0  0  0  0  0  0  0
   -5.3662   24.7688    4.3721 C   0  0  0  0  0  0  0  0  0  0  0  0
   -5.5123   24.8105    2.9972 C   0  0  0  0  0  0  0  0  0  0  0  0
   -5.4438   25.9264    2.0163 C   0  0  0  0  0  0  0  0  0  0  0  0
   -5.9411   22.9902    1.2774 C   0  0  0  0  0  0  0  0  0  0  0  0
   -7.3512   22.4664    1.0371 C   0  0  0  0  0  0  0  0  0  0  0  0
   -7.4629   24.2143   -0.5738 C   0  0  0  0  0  0  0  0  0  0  0  0
   -7.8599   22.8928   -0.2313 O   0  0  0  0  0  0  0  0  0  0  0  0
 27 28  1  0  0  0
 28 26  1  0  0  0
 26 25  1  0  0  0
 25 18  1  0  0  0
 18 19  1  0  0  0
 19 20  2  0  0  0
 20 21  1  0  0  0
 20 22  1  0  0  0
 22  1  1  0  0  0
  1  2  1  0  0  0
  2  3  2  0  0  0
  2  4  1  0  0  0
  4  7  1  0  0  0
  7  8  1  0  0  0
  8  9  2  0  0  0
  9 10  1  0  0  0
 10 11  2  0  0  0
 11 12  1  0  0  0
 12 13  2  0  0  0
 13 14  1  0  0  0
 14 15  1  0  0  0
 15 16  1  0  0  0
 22 23  2  0  0  0
 23 24  1  0  0  0
 23 18  1  0  0  0
 15  7  1  0  0  0
 13  8  1  0  0  0
  1  5  1  0  0  0
  4  6  1  0  0  0
 16 17  1  0  0  0
M  END
> <minimizedAffinity>
-8.79967

$$$$
OCNT-2312773


 25 28  0  0  0  0  0  0  0  0999 V2000
   -6.2477   26.8784    4.9609 C   0  0  0  0  0  0  0  0  0  0  0  0
   -5.7977   26.0488    3.7638 C   0  0  0  0  0  0  0  0  0  0  0  0
   -5.4273   26.5632    2.7067 O   0  0  0  0  0  0  0  0  0  0  0  0
   -5.7760   24.6602    3.9334 N   0  0  0  0  0  0  0  0  0  0  0  0
   -6.3933   23.9623    5.0703 C   0  0  0  0  0  0  0  0  0  0  0  0
   -5.7537   22.5943    5.3261 C   0  0  0  0  0  0  0  0  0  0  0  0
   -5.7028   21.8062    4.1319 O   0  0  0  0  0  0  0  0  0  0  0  0
   -4.9168   22.4746    3.1340 C   0  0  0  0  0  0  0  0  0  0  0  0
   -5.5442   23.8233    2.7302 C   0  0  0  0  0  0  0  0  0  0  0  0
   -6.8615   23.6442    1.9383 C   0  0  0  0  0  0  0  0  0  0  0  0
   -6.6388   23.4891    0.4586 C   0  0  0  0  0  0  0  0  0  0  0  0
   -7.3757   24.3685   -0.5176 C   0  0  0  0  0  0  0  0  0  0  0  0
   -7.7282   22.9110   -0.4079 C   0  0  0  0  0  0  0  0  0  0  0  0
   -6.2903   29.7815    6.4956 C   0  0  0  0  0  0  0  0  0  0  0  0
   -5.1546   28.8592    6.2706 C   0  0  0  0  0  0  0  0  0  0  0  0
   -5.1466   27.6384    5.6124 C   0  0  0  0  0  0  0  0  0  0  0  0
   -3.8685   27.1733    5.5347 N   0  0  0  0  0  0  0  0  0  0  0  0
   -3.0779   28.0431    6.1363 N   0  0  0  0  0  0  0  0  0  0  0  0
   -3.8327   29.0434    6.6697 N   0  0  0  0  0  0  0  0  0  0  0  0
   -3.2049   30.0448    7.4698 C   0  0  0  0  0  0  0  0  0  0  0  0
   -3.3036   30.0700    8.8655 C   0  0  0  0  0  0  0  0  0  0  0  0
   -2.6672   31.0757    9.6032 C   0  0  0  0  0  0  0  0  0  0  0  0
   -1.9217   32.0594    8.9587 C   0  0  0  0  0  0  0  0  0  0  0  0
   -1.8009   32.0368    7.5733 C   0  0  0  0  0  0  0  0  0  0  0  0
   -2.4330   31.0346    6.8327 C   0  0  0  0  0  0  0  0  0  0  0  0
 14 15  1  0  0  0
 15 16  2  0  0  0
 16  1  1  0  0  0
  1  2  1  0  0  0
  2  3  2  0  0  0
  2  4  1  0  0  0
  4  5  1  0  0  0
  5  6  1  0  0  0
  6  7  1  0  0  0
  7  8  1  0  0  0
  8  9  1  0  0  0
  9 10  1  0  0  0
 10 11  1  0  0  0
 11 12  1  0  0  0
 12 13  1  0  0  0
 16 17  1  0  0  0
 17 18  2  0  0  0
 18 19  1  0  0  0
 19 20  1  0  0  0
 20 21  2  0  0  0
 21 22  1  0  0  0
 22 23  2  0  0  0
 23 24  1  0  0  0
 24 25  2  0  0  0
 19 15  1  0  0  0
 25 20  1  0  0  0
  9  4  1  0  0  0
 13 11  1  0  0  0
M  END
> <minimizedAffinity>
-9.23026

$$$$
OCNT-2312798


 24 26  0  0  0  0  0  0  0  0999 V2000
   -3.5466   26.3795    2.9907 C   0  0  0  0  0  0  0  0  0  0  0  0
   -4.6057   26.5681    4.0904 C   0  0  0  0  0  0  0  0  0  0  0  0
   -5.6580   27.5921    3.5920 C   0  0  0  0  0  0  0  0  0  0  0  0
   -6.1225   28.2886    4.8612 C   0  0  0  0  0  0  0  0  0  0  0  0
   -4.8304   28.4334    5.6445 C   0  0  0  0  0  0  0  0  0  0  0  0
   -4.0385   27.2652    5.2802 N   0  0  0  0  0  0  0  0  0  0  0  0
   -2.9397   26.7965    5.9880 C   0  0  0  0  0  0  0  0  0  0  0  0
   -2.3713   25.7461    5.6930 O   0  0  0  0  0  0  0  0  0  0  0  0
   -5.2419   25.2137    4.5314 C   0  0  0  0  0  0  0  0  0  0  0  0
   -5.4326   24.1636    3.4581 C   0  0  0  0  0  0  0  0  0  0  0  0
   -4.8841   22.8806    3.6139 C   0  0  0  0  0  0  0  0  0  0  0  0
   -5.0618   21.9099    2.6271 C   0  0  0  0  0  0  0  0  0  0  0  0
   -5.7939   22.2175    1.4878 C   0  0  0  0  0  0  0  0  0  0  0  0
   -5.9644   21.2859    0.5405 F   0  0  0  0  0  0  0  0  0  0  0  0
   -6.3562   23.4764    1.3181 C   0  0  0  0  0  0  0  0  0  0  0  0
   -6.1797   24.4484    2.3040 C   0  0  0  0  0  0  0  0  0  0  0  0
   -2.4585   27.6761    7.1568 C   0  0  0  0  0  0  0  0  0  0  0  0
   -1.4468   28.6235    6.8487 O   0  0  0  0  0  0  0  0  0  0  0  0
   -1.4798   29.8244    7.4947 C   0  0  0  0  0  0  0  0  0  0  0  0
   -0.8634   30.1396    8.7020 C   0  0  0  0  0  0  0  0  0  0  0  0
   -1.0001   31.4245    9.2297 C   0  0  0  0  0  0  0  0  0  0  0  0
   -1.7516   32.3541    8.5291 C   0  0  0  0  0  0  0  0  0  0  0  0
   -2.3663   32.0874    7.3595 N   0  0  0  0  0  0  0  0  0  0  0  0
   -2.2221   30.8278    6.8791 C   0  0  0  0  0  0  0  0  0  0  0  0
  1  2  1  0  0  0
  2  9  1  0  0  0
  9 10  1  0  0  0
 10 11  1  0  0  0
 11 12  2  0  0  0
 12 13  1  0  0  0
 13 14  1  0  0  0
 13 15  2  0  0  0
 15 16  1  0  0  0
  2  3  1  0  0  0
  3  4  1  0  0  0
  4  5  1  0  0  0
  5  6  1  0  0  0
  6  7  1  0  0  0
  7  8  2  0  0  0
  7 17  1  0  0  0
 17 18  1  0  0  0
 18 19  1  0  0  0
 19 20  1  0  0  0
 20 21  2  0  0  0
 21 22  1  0  0  0
 22 23  2  0  0  0
 23 24  1  0  0  0
  6  2  1  0  0  0
 24 19  2  0  0  0
 16 10  2  0  0  0
M  END
> <minimizedAffinity>
-8.72688

$$$$
OCNT-2312800


 25 27  0  0  0  0  0  0  0  0999 V2000
   -3.0634   26.3819    3.8927 C   0  0  0  0  0  0  0  0  0  0  0  0
   -1.5870   25.9653    3.8229 C   0  0  0  0  0  0  0  0  0  0  0  0
   -0.8513   26.1466    5.1551 C   0  0  0  0  0  0  0  0  0  0  0  0
   -1.3233   27.3500    5.8388 N   0  0  0  0  0  0  0  0  0  0  0  0
   -2.7358   27.2317    6.2408 C   0  0  0  0  0  0  0  0  0  0  0  0
   -3.5689   26.3198    5.3322 C   0  0  0  0  0  0  0  0  0  0  0  0
   -5.0968   25.9805    2.5143 C   0  0  0  0  0  0  0  0  0  0  0  0
   -5.5149   27.1181    2.7171 O   0  0  0  0  0  0  0  0  0  0  0  0
   -3.8772   25.5581    3.0081 N   0  0  0  0  0  0  0  0  0  0  0  0
   -3.6620   24.5739    2.9137 H   0  0  0  0  0  0  0  0  0  0  0  0
   -7.0444   23.0399    1.2482 C   0  0  0  0  0  0  0  0  0  0  0  0
   -7.0537   23.6870    0.0324 C   0  0  0  0  0  0  0  0  0  0  0  0
   -6.2301   25.1874    0.0965 S   0  0  0  0  0  0  0  0  0  0  0  0
   -5.8511   24.9892    1.7568 C   0  0  0  0  0  0  0  0  0  0  0  0
   -6.3510   23.7922    2.2365 C   0  0  0  0  0  0  0  0  0  0  0  0
   -7.4885   21.4223    2.8981 C   0  0  0  0  0  0  0  0  0  0  0  0
   -7.6014   21.8375    1.5435 O   0  0  0  0  0  0  0  0  0  0  0  0
   -0.4469   27.7037    6.9705 C   0  0  0  0  0  0  0  0  0  0  0  0
    0.2094   29.0873    6.8224 C   0  0  0  0  0  0  0  0  0  0  0  0
   -0.6162   30.1661    7.4834 C   0  0  0  0  0  0  0  0  0  0  0  0
   -1.5390   30.9111    6.7371 C   0  0  0  0  0  0  0  0  0  0  0  0
   -2.2874   31.9209    7.3436 C   0  0  0  0  0  0  0  0  0  0  0  0
   -2.1176   32.1977    8.6990 C   0  0  0  0  0  0  0  0  0  0  0  0
   -1.1987   31.4659    9.4490 C   0  0  0  0  0  0  0  0  0  0  0  0
   -0.4493   30.4555    8.8444 C   0  0  0  0  0  0  0  0  0  0  0  0
 16 17  1  0  0  0
 17 11  1  0  0  0
 11 12  2  0  0  0
 12 13  1  0  0  0
 13 14  1  0  0  0
 14  7  1  0  0  0
  7  8  2  0  0  0
  7  9  1  0  0  0
  9  1  1  0  0  0
  1  2  1  0  0  0
  2  3  1  0  0  0
  3  4  1  0  0  0
  4 18  1  0  0  0
 18 19  1  0  0  0
 19 20  1  0  0  0
 20 21  2  0  0  0
 21 22  1  0  0  0
 22 23  2  0  0  0
 23 24  1  0  0  0
 24 25  2  0  0  0
  4  5  1  0  0  0
  5  6  1  0  0  0
 14 15  2  0  0  0
 15 11  1  0  0  0
  6  1  1  0  0  0
 25 20  1  0  0  0
  9 10  1  0  0  0
M  END
> <minimizedAffinity>
-8.91535

$$$$
OCNT-2312825


 23 26  0  0  0  0  0  0  0  0999 V2000
   -5.3382   28.0218    5.3433 O   0  0  0  0  0  0  0  0  0  0  0  0
   -4.2914   27.4880    4.9896 C   0  0  0  0  0  0  0  0  0  0  0  0
   -4.1133   26.8792    3.7689 N   0  0  0  0  0  0  0  0  0  0  0  0
   -3.2383   26.3730    3.6668 H   0  0  0  0  0  0  0  0  0  0  0  0
   -3.0941   27.4263    5.8430 C   0  0  0  0  0  0  0  0  0  0  0  0
   -2.2954   26.3351    5.8772 N   0  0  0  0  0  0  0  0  0  0  0  0
   -1.3399   26.6623    6.7669 N   0  0  0  0  0  0  0  0  0  0  0  0
   -1.4890   27.9106    7.2873 C   0  0  0  0  0  0  0  0  0  0  0  0
   -2.6201   28.4371    6.7204 C   0  0  0  0  0  0  0  0  0  0  0  0
   -0.6126   25.9855    6.9715 H   0  0  0  0  0  0  0  0  0  0  0  0
   -0.5786   28.5813    8.3369 C   0  0  0  0  0  0  0  0  0  0  0  0
   -0.4659   30.0822    8.3512 C   0  0  0  0  0  0  0  0  0  0  0  0
    0.6909   29.2499    7.8811 C   0  0  0  0  0  0  0  0  0  0  0  0
   -5.1939   26.6486    2.8511 C   0  0  0  0  0  0  0  0  0  0  0  0
   -5.2928   25.1765    2.5973 C   0  0  0  0  0  0  0  0  0  0  0  0
   -4.7829   24.2195    3.4545 C   0  0  0  0  0  0  0  0  0  0  0  0
   -5.0461   22.6307    2.9092 S   0  0  0  0  0  0  0  0  0  0  0  0
   -5.8518   23.1734    1.4899 C   0  0  0  0  0  0  0  0  0  0  0  0
   -6.3966   22.3666    0.4706 C   0  0  0  0  0  0  0  0  0  0  0  0
   -7.0171   22.9773   -0.6203 C   0  0  0  0  0  0  0  0  0  0  0  0
   -7.0957   24.3592   -0.7002 C   0  0  0  0  0  0  0  0  0  0  0  0
   -6.5543   25.1560    0.3136 C   0  0  0  0  0  0  0  0  0  0  0  0
   -5.9182   24.5694    1.4389 C   0  0  0  0  0  0  0  0  0  0  0  0
  1  2  2  0  0  0
  2  3  1  0  0  0
  3 14  1  0  0  0
 14 15  1  0  0  0
 15 16  2  0  0  0
 16 17  1  0  0  0
 17 18  1  0  0  0
 18 19  2  0  0  0
 19 20  1  0  0  0
 20 21  2  0  0  0
 21 22  1  0  0  0
 22 23  2  0  0  0
  2  5  1  0  0  0
  5  6  2  0  0  0
  6  7  1  0  0  0
  7  8  1  0  0  0
  8 11  1  0  0  0
 11 12  1  0  0  0
 12 13  1  0  0  0
  8  9  2  0  0  0
 23 15  1  0  0  0
  9  5  1  0  0  0
 23 18  1  0  0  0
 13 11  1  0  0  0
  3  4  1  0  0  0
  7 10  1  0  0  0
M  END
> <minimizedAffinity>
-8.88120

$$$$
OCNT-2312831


 24 26  0  0  0  0  0  0  0  0999 V2000
   -4.7620   27.4834    5.2289 C   0  0  0  0  0  0  0  0  0  0  0  0
   -3.5939   26.7575    4.9726 C   0  0  0  0  0  0  0  0  0  0  0  0
   -3.4278   26.0711    3.7660 C   0  0  0  0  0  0  0  0  0  0  0  0
   -4.4240   26.1087    2.7831 C   0  0  0  0  0  0  0  0  0  0  0  0
   -5.5971   26.8269    3.0477 C   0  0  0  0  0  0  0  0  0  0  0  0
   -5.7634   27.5090    4.2591 C   0  0  0  0  0  0  0  0  0  0  0  0
   -4.8573   29.5065    6.7217 C   0  0  0  0  0  0  0  0  0  0  0  0
   -4.7938   30.3922    5.8717 O   0  0  0  0  0  0  0  0  0  0  0  0
   -4.8478   28.1401    6.4712 N   0  0  0  0  0  0  0  0  0  0  0  0
   -4.8448   27.5379    7.2969 H   0  0  0  0  0  0  0  0  0  0  0  0
   -6.1971   30.7796    8.4690 C   0  0  0  0  0  0  0  0  0  0  0  0
   -5.0226   29.8372    8.2079 C   0  0  0  0  0  0  0  0  0  0  0  0
   -3.7590   30.3225    8.7524 N   0  0  0  0  0  0  0  0  0  0  0  0
   -3.5199   31.4625    9.4656 C   0  0  0  0  0  0  0  0  0  0  0  0
   -2.1634   31.5001    9.6874 C   0  0  0  0  0  0  0  0  0  0  0  0
   -1.6636   30.3505    9.0525 C   0  0  0  0  0  0  0  0  0  0  0  0
   -2.6265   29.6371    8.4615 N   0  0  0  0  0  0  0  0  0  0  0  0
   -4.2649   25.3574    1.4792 C   0  0  0  0  0  0  0  0  0  0  0  0
   -5.5308   24.7114    0.9648 C   0  0  0  0  0  0  0  0  0  0  0  0
   -6.0686   23.5812    1.5895 C   0  0  0  0  0  0  0  0  0  0  0  0
   -7.2288   23.0232    1.0752 C   0  0  0  0  0  0  0  0  0  0  0  0
   -7.8784   23.5037   -0.0062 N   0  0  0  0  0  0  0  0  0  0  0  0
   -7.3407   24.5894   -0.6000 C   0  0  0  0  0  0  0  0  0  0  0  0
   -6.1852   25.2188   -0.1611 C   0  0  0  0  0  0  0  0  0  0  0  0
 11 12  1  0  0  0
 12  7  1  0  0  0
  7  8  2  0  0  0
  7  9  1  0  0  0
  9  1  1  0  0  0
  1  2  1  0  0  0
  2  3  2  0  0  0
  3  4  1  0  0  0
  4 18  1  0  0  0
 18 19  1  0  0  0
 19 20  2  0  0  0
 20 21  1  0  0  0
 21 22  2  0  0  0
 22 23  1  0  0  0
 23 24  2  0  0  0
  4  5  2  0  0  0
  5  6  1  0  0  0
 12 13  1  0  0  0
 13 14  1  0  0  0
 14 15  2  0  0  0
 15 16  1  0  0  0
 16 17  2  0  0  0
  6  1  2  0  0  0
 17 13  1  0  0  0
 24 19  1  0  0  0
  9 10  1  0  0  0
M  END
> <minimizedAffinity>
-8.86512

$$$$
OCNT-2312832


 24 27  0  0  0  0  0  0  0  0999 V2000
   -3.3342   28.9907    6.9239 C   0  0  0  0  0  0  0  0  0  0  0  0
   -2.7854   27.8323    6.6115 N   0  0  0  0  0  0  0  0  0  0  0  0
   -3.6737   27.2623    5.7190 C   0  0  0  0  0  0  0  0  0  0  0  0
   -4.7499   28.1053    5.5593 C   0  0  0  0  0  0  0  0  0  0  0  0
   -4.5450   29.2140    6.3207 O   0  0  0  0  0  0  0  0  0  0  0  0
   -4.1140   33.4264    9.5255 Cl  0  0  0  0  0  0  0  0  0  0  0  0
   -3.1221   32.0995    9.0573 C   0  0  0  0  0  0  0  0  0  0  0  0
   -1.8164   32.0134    9.5360 C   0  0  0  0  0  0  0  0  0  0  0  0
   -1.0132   30.9398    9.1577 C   0  0  0  0  0  0  0  0  0  0  0  0
   -1.5216   29.9584    8.3030 C   0  0  0  0  0  0  0  0  0  0  0  0
   -2.8366   30.0352    7.8150 C   0  0  0  0  0  0  0  0  0  0  0  0
   -3.6338   31.1217    8.2032 C   0  0  0  0  0  0  0  0  0  0  0  0
   -3.4239   25.9183    5.1171 C   0  0  0  0  0  0  0  0  0  0  0  0
   -4.2609   25.7172    3.9253 N   0  0  0  0  0  0  0  0  0  0  0  0
   -5.0893   24.5042    3.9743 C   0  0  0  0  0  0  0  0  0  0  0  0
   -4.5987   23.3949    3.0441 C   0  0  0  0  0  0  0  0  0  0  0  0
   -4.5497   23.8657    1.5826 C   0  0  0  0  0  0  0  0  0  0  0  0
   -4.2462   25.3675    1.4760 C   0  0  0  0  0  0  0  0  0  0  0  0
   -3.4732   25.8568    2.6967 C   0  0  0  0  0  0  0  0  0  0  0  0
   -5.8117   23.5420    0.8519 C   0  0  0  0  0  0  0  0  0  0  0  0
   -6.3697   22.3691    0.6241 N   0  0  0  0  0  0  0  0  0  0  0  0
   -7.5083   22.6786   -0.0743 C   0  0  0  0  0  0  0  0  0  0  0  0
   -7.5947   24.0363   -0.2472 C   0  0  0  0  0  0  0  0  0  0  0  0
   -6.5085   24.6063    0.3430 O   0  0  0  0  0  0  0  0  0  0  0  0
  6  7  1  0  0  0
  7  8  1  0  0  0
  8  9  2  0  0  0
  9 10  1  0  0  0
 10 11  2  0  0  0
 11  1  1  0  0  0
  1  2  2  0  0  0
  2  3  1  0  0  0
  3 13  1  0  0  0
 13 14  1  0  0  0
 14 15  1  0  0  0
 15 16  1  0  0  0
 16 17  1  0  0  0
 17 20  1  0  0  0
 20 21  2  0  0  0
 21 22  1  0  0  0
 22 23  2  0  0  0
 23 24  1  0  0  0
 17 18  1  0  0  0
 18 19  1  0  0  0
  3  4  2  0  0  0
  4  5  1  0  0  0
 11 12  1  0  0  0
 12  7  2  0  0  0
  5  1  1  0  0  0
 19 14  1  0  0  0
 24 20  1  0  0  0
M  END
> <minimizedAffinity>
-8.97479

$$$$
OCNT-2312836


 21 23  0  0  0  0  0  0  0  0999 V2000
   -4.2938   29.0165    6.6259 N   0  0  0  0  0  0  0  0  0  0  0  0
   -4.9596   30.1652    5.9791 C   0  0  0  0  0  0  0  0  0  0  0  0
   -5.7683   29.7475    4.7466 C   0  0  0  0  0  0  0  0  0  0  0  0
   -6.4942   28.4240    4.9680 C   0  0  0  0  0  0  0  0  0  0  0  0
   -5.5258   27.2918    5.3790 C   0  0  0  0  0  0  0  0  0  0  0  0
   -4.1301   27.8320    5.7671 C   0  0  0  0  0  0  0  0  0  0  0  0
    0.4969   29.3495    6.3961 C   0  0  0  0  0  0  0  0  0  0  0  0
   -0.7599   29.5813    7.1799 C   0  0  0  0  0  0  0  0  0  0  0  0
   -0.7008   30.1497    8.4430 C   0  0  0  0  0  0  0  0  0  0  0  0
   -1.8891   30.3381    9.1375 C   0  0  0  0  0  0  0  0  0  0  0  0
   -3.1030   29.9597    8.5523 C   0  0  0  0  0  0  0  0  0  0  0  0
   -3.0958   29.4011    7.2670 C   0  0  0  0  0  0  0  0  0  0  0  0
   -1.9279   29.2130    6.6008 N   0  0  0  0  0  0  0  0  0  0  0  0
   -4.3093   30.1241    9.3046 C   0  0  0  0  0  0  0  0  0  0  0  0
   -5.3158   30.2585    9.8689 N   0  0  0  0  0  0  0  0  0  0  0  0
   -5.4188   26.2030    4.3248 C   0  0  0  0  0  0  0  0  0  0  0  0
   -5.6211   26.5113    2.9753 C   0  0  0  0  0  0  0  0  0  0  0  0
   -5.5245   25.4972    2.0338 C   0  0  0  0  0  0  0  0  0  0  0  0
   -5.2456   24.2126    2.3378 N   0  0  0  0  0  0  0  0  0  0  0  0
   -5.0549   23.9312    3.6433 C   0  0  0  0  0  0  0  0  0  0  0  0
   -5.1301   24.8748    4.6574 C   0  0  0  0  0  0  0  0  0  0  0  0
  7  8  1  0  0  0
  8  9  2  0  0  0
  9 10  1  0  0  0
 10 11  2  0  0  0
 11 14  1  0  0  0
 14 15  3  0  0  0
 11 12  1  0  0  0
 12  1  1  0  0  0
  1  2  1  0  0  0
  2  3  1  0  0  0
  3  4  1  0  0  0
  4  5  1  0  0  0
  5 16  1  0  0  0
 16 17  2  0  0  0
 17 18  1  0  0  0
 18 19  2  0  0  0
 19 20  1  0  0  0
 20 21  2  0  0  0
  5  6  1  0  0  0
 12 13  2  0  0  0
 13  8  1  0  0  0
  6  1  1  0  0  0
 21 16  1  0  0  0
M  END
> <minimizedAffinity>
-8.05054

$$$$
OCNT-2312847


 21 24  0  0  0  0  0  0  0  0999 V2000
   -4.0860   23.5563    3.0174 O   0  0  0  0  0  0  0  0  0  0  0  0
   -5.2483   23.7388    3.8598 S   0  0  0  0  0  0  0  0  0  0  0  0
   -5.2700   23.2412    5.2191 O   0  0  0  0  0  0  0  0  0  0  0  0
   -5.5992   25.4790    3.9564 C   0  0  0  0  0  0  0  0  0  0  0  0
   -5.4832   26.2570    2.7849 C   0  0  0  0  0  0  0  0  0  0  0  0
   -5.7509   27.6274    2.8278 C   0  0  0  0  0  0  0  0  0  0  0  0
   -6.1288   28.1673    4.0400 C   0  0  0  0  0  0  0  0  0  0  0  0
   -6.4259   29.4749    4.2661 O   0  0  0  0  0  0  0  0  0  0  0  0
   -6.7563   29.4416    5.6703 C   0  0  0  0  0  0  0  0  0  0  0  0
   -6.6295   28.1299    6.2579 O   0  0  0  0  0  0  0  0  0  0  0  0
   -6.2454   27.3990    5.1774 C   0  0  0  0  0  0  0  0  0  0  0  0
   -5.9903   26.0453    5.1740 C   0  0  0  0  0  0  0  0  0  0  0  0
   -6.6018   23.1428    3.0363 N   0  0  0  0  0  0  0  0  0  0  0  0
   -6.4704   22.8356    1.5990 C   0  0  0  0  0  0  0  0  0  0  0  0
   -7.5122   23.4977    0.7448 C   0  0  0  0  0  0  0  0  0  0  0  0
   -7.8136   22.9332   -0.6226 C   0  0  0  0  0  0  0  0  0  0  0  0
   -7.1399   24.2692   -0.4990 C   0  0  0  0  0  0  0  0  0  0  0  0
   -7.4944   22.2555    3.8030 C   0  0  0  0  0  0  0  0  0  0  0  0
   -8.6558   23.0558    4.3129 C   0  0  0  0  0  0  0  0  0  0  0  0
   -9.6804   22.4338    5.2288 C   0  0  0  0  0  0  0  0  0  0  0  0
   -8.7282   23.4686    5.7617 C   0  0  0  0  0  0  0  0  0  0  0  0
  1  2  2  0  0  0
  2  3  2  0  0  0
  2  4  1  0  0  0
  4  5  1  0  0  0
  5  6  2  0  0  0
  6  7  1  0  0  0
  7  8  1  0  0  0
  8  9  1  0  0  0
  9 10  1  0  0  0
 10 11  1  0  0  0
 11 12  1  0  0  0
  2 13  1  0  0  0
 13 14  1  0  0  0
 14 15  1  0  0  0
 15 16  1  0  0  0
 16 17  1  0  0  0
 13 18  1  0  0  0
 18 19  1  0  0  0
 19 20  1  0  0  0
 20 21  1  0  0  0
 12  4  2  0  0  0
 17 15  1  0  0  0
 21 19  1  0  0  0
 11  7  2  0  0  0
M  END
> <minimizedAffinity>
-7.37300

$$$$
OCNT-2312850


 25 26  0  0  0  0  0  0  0  0999 V2000
   -4.7262   31.0472    6.8785 N   0  0  0  0  0  0  0  0  0  0  0  0
   -5.7438   30.7140    7.7369 C   0  0  0  0  0  0  0  0  0  0  0  0
   -5.8236   31.1361    8.8869 O   0  0  0  0  0  0  0  0  0  0  0  0
   -4.7358   30.6905    5.9323 H   0  0  0  0  0  0  0  0  0  0  0  0
   -3.7310   32.0371    7.2091 C   0  0  0  0  0  0  0  0  0  0  0  0
   -2.4856   31.9099   10.0305 C   0  0  0  0  0  0  0  0  0  0  0  0
   -1.9656   31.2749    8.8390 N   0  0  0  0  0  0  0  0  0  0  0  0
   -0.8354   30.5472    8.9283 N   0  0  0  0  0  0  0  0  0  0  0  0
   -0.6117   30.0998    7.6778 C   0  0  0  0  0  0  0  0  0  0  0  0
   -1.6299   30.5545    6.7990 C   0  0  0  0  0  0  0  0  0  0  0  0
   -2.4890   31.3106    7.5712 C   0  0  0  0  0  0  0  0  0  0  0  0
    0.5704   29.2386    7.3208 C   0  0  0  0  0  0  0  0  0  0  0  0
    1.1142   29.5622    6.1174 F   0  0  0  0  0  0  0  0  0  0  0  0
    1.5668   29.3113    8.2433 F   0  0  0  0  0  0  0  0  0  0  0  0
    0.2228   27.9220    7.2392 F   0  0  0  0  0  0  0  0  0  0  0  0
   -6.7555   29.7585    7.1401 C   0  0  0  0  0  0  0  0  0  0  0  0
   -6.8240   29.8670    5.6166 C   0  0  0  0  0  0  0  0  0  0  0  0
   -6.4026   28.5949    4.9148 C   0  0  0  0  0  0  0  0  0  0  0  0
   -6.4559   27.3811    5.6207 C   0  0  0  0  0  0  0  0  0  0  0  0
   -6.1176   26.1746    4.9985 C   0  0  0  0  0  0  0  0  0  0  0  0
   -5.7239   26.1626    3.6628 C   0  0  0  0  0  0  0  0  0  0  0  0
   -5.6583   27.3575    2.9524 C   0  0  0  0  0  0  0  0  0  0  0  0
   -5.9776   28.5617    3.5804 C   0  0  0  0  0  0  0  0  0  0  0  0
   -5.8433   29.6861    2.8137 O   0  0  0  0  0  0  0  0  0  0  0  0
   -5.5874   30.4378    3.3889 H   0  0  0  0  0  0  0  0  0  0  0  0
  6  7  1  0  0  0
  7  8  1  0  0  0
  8  9  2  0  0  0
  9 12  1  0  0  0
 12 13  1  0  0  0
 12 14  1  0  0  0
 12 15  1  0  0  0
  9 10  1  0  0  0
 10 11  2  0  0  0
 11  5  1  0  0  0
  5  1  1  0  0  0
  1  2  1  0  0  0
  2  3  2  0  0  0
  2 16  1  0  0  0
 16 17  1  0  0  0
 17 18  1  0  0  0
 18 19  2  0  0  0
 19 20  1  0  0  0
 20 21  2  0  0  0
 21 22  1  0  0  0
 22 23  2  0  0  0
 23 24  1  0  0  0
 11  7  1  0  0  0
 23 18  1  0  0  0
  1  4  1  0  0  0
 24 25  1  0  0  0
M  END
> <minimizedAffinity>
-9.29002

$$$$
OCNT-2312851


 26 29  0  0  0  0  0  0  0  0999 V2000
   -4.8636   30.5458    7.4292 N   0  0  0  0  0  0  0  0  0  0  0  0
   -6.3822   29.8101    7.2897 S   0  0  0  0  0  0  0  0  0  0  0  0
   -6.5420   28.8487    8.3598 O   0  0  0  0  0  0  0  0  0  0  0  0
   -7.3655   30.8458    7.0492 O   0  0  0  0  0  0  0  0  0  0  0  0
   -6.1951   28.8732    5.7866 C   0  0  0  0  0  0  0  0  0  0  0  0
   -6.1812   29.5517    4.5653 C   0  0  0  0  0  0  0  0  0  0  0  0
   -6.0538   28.8253    3.3823 C   0  0  0  0  0  0  0  0  0  0  0  0
   -5.9277   27.4350    3.4225 C   0  0  0  0  0  0  0  0  0  0  0  0
   -5.8193   26.8090    2.2089 O   0  0  0  0  0  0  0  0  0  0  0  0
   -5.3471   25.4600    2.2738 C   0  0  0  0  0  0  0  0  0  0  0  0
   -6.0880   24.6503    3.3242 C   0  0  0  0  0  0  0  0  0  0  0  0
   -5.8174   25.2555    4.6934 C   0  0  0  0  0  0  0  0  0  0  0  0
   -5.9497   26.7512    4.6456 C   0  0  0  0  0  0  0  0  0  0  0  0
   -6.0668   27.4814    5.8361 C   0  0  0  0  0  0  0  0  0  0  0  0
   -3.6934   29.8372    6.8227 C   0  0  0  0  0  0  0  0  0  0  0  0
   -0.7326   26.6267    5.8866 C   0  0  0  0  0  0  0  0  0  0  0  0
   -1.3922   27.8661    6.2880 N   0  0  0  0  0  0  0  0  0  0  0  0
   -0.4477   28.8207    6.9044 C   0  0  0  0  0  0  0  0  0  0  0  0
   -0.7289   29.1074    8.3881 C   0  0  0  0  0  0  0  0  0  0  0  0
   -2.0613   29.5761    8.6188 O   0  0  0  0  0  0  0  0  0  0  0  0
   -3.0691   28.8743    7.8562 C   0  0  0  0  0  0  0  0  0  0  0  0
   -2.5293   27.5911    7.1845 C   0  0  0  0  0  0  0  0  0  0  0  0
   -4.8255   32.0168    7.2865 C   0  0  0  0  0  0  0  0  0  0  0  0
   -5.0353   32.7351    8.5874 C   0  0  0  0  0  0  0  0  0  0  0  0
   -3.8648   33.1654    9.4365 C   0  0  0  0  0  0  0  0  0  0  0  0
   -4.6763   34.1960    8.7044 C   0  0  0  0  0  0  0  0  0  0  0  0
 16 17  1  0  0  0
 17 18  1  0  0  0
 18 19  1  0  0  0
 19 20  1  0  0  0
 20 21  1  0  0  0
 21 15  1  0  0  0
 15  1  1  0  0  0
  1 23  1  0  0  0
 23 24  1  0  0  0
 24 25  1  0  0  0
 25 26  1  0  0  0
  1  2  1  0  0  0
  2  3  2  0  0  0
  2  4  2  0  0  0
  2  5  1  0  0  0
  5  6  1  0  0  0
  6  7  2  0  0  0
  7  8  1  0  0  0
  8  9  1  0  0  0
  9 10  1  0  0  0
 10 11  1  0  0  0
 11 12  1  0  0  0
 12 13  1  0  0  0
 13 14  1  0  0  0
 21 22  1  0  0  0
 22 17  1  0  0  0
 26 24  1  0  0  0
 14  5  2  0  0  0
 13  8  2  0  0  0
M  END
> <minimizedAffinity>
-8.98180

$$$$
OCNT-2312874


 21 25  0  0  0  0  0  0  0  0999 V2000
   -2.1982   26.4785    5.2897 C   0  0  0  0  0  0  0  0  0  0  0  0
   -0.8805   26.4152    5.0375 N   0  0  0  0  0  0  0  0  0  0  0  0
   -0.3090   27.1342    6.0842 O   0  0  0  0  0  0  0  0  0  0  0  0
   -1.3372   27.5621    6.8715 C   0  0  0  0  0  0  0  0  0  0  0  0
   -2.5149   27.1883    6.4272 N   0  0  0  0  0  0  0  0  0  0  0  0
   -4.4823   25.3982    5.1561 C   0  0  0  0  0  0  0  0  0  0  0  0
   -5.4730   24.8503    4.4301 C   0  0  0  0  0  0  0  0  0  0  0  0
   -5.3242   24.7508    3.0535 N   0  0  0  0  0  0  0  0  0  0  0  0
   -6.1711   24.2424    2.1019 C   0  0  0  0  0  0  0  0  0  0  0  0
   -5.6631   24.3273    0.8904 N   0  0  0  0  0  0  0  0  0  0  0  0
   -4.4331   24.9170    1.0558 C   0  0  0  0  0  0  0  0  0  0  0  0
   -4.1969   25.1912    2.3831 C   0  0  0  0  0  0  0  0  0  0  0  0
   -3.1470   25.7733    3.1475 C   0  0  0  0  0  0  0  0  0  0  0  0
   -3.2533   25.8891    4.4974 C   0  0  0  0  0  0  0  0  0  0  0  0
   -1.1286   28.4068    8.1611 C   0  0  0  0  0  0  0  0  0  0  0  0
    0.1050   29.2625    8.2905 C   0  0  0  0  0  0  0  0  0  0  0  0
   -1.2453   29.9183    8.1102 C   0  0  0  0  0  0  0  0  0  0  0  0
   -1.5631   30.6595    6.8507 C   0  0  0  0  0  0  0  0  0  0  0  0
   -1.8965   32.0419    7.3832 C   0  0  0  0  0  0  0  0  0  0  0  0
   -2.5386   31.8026    8.6452 O   0  0  0  0  0  0  0  0  0  0  0  0
   -1.8751   30.6752    9.2421 C   0  0  0  0  0  0  0  0  0  0  0  0
  6  7  2  0  0  0
  7  8  1  0  0  0
  8  9  1  0  0  0
  9 10  2  0  0  0
 10 11  1  0  0  0
 11 12  2  0  0  0
 12 13  1  0  0  0
 13 14  2  0  0  0
 14  1  1  0  0  0
  1  2  2  0  0  0
  2  3  1  0  0  0
  3  4  1  0  0  0
  4 15  1  0  0  0
 15 16  1  0  0  0
 16 17  1  0  0  0
 17 18  1  0  0  0
 18 19  1  0  0  0
 19 20  1  0  0  0
 20 21  1  0  0  0
  4  5  2  0  0  0
 14  6  1  0  0  0
  5  1  1  0  0  0
 12  8  1  0  0  0
 17 15  1  0  0  0
 21 17  1  0  0  0
M  END
> <minimizedAffinity>
-8.27786

$$$$
OCNT-2312890


 22 23  0  0  0  0  0  0  0  0999 V2000
   -7.2175   30.3260    6.8277 C   0  0  0  0  0  0  0  0  0  0  0  0
   -6.6825   29.3794    5.7936 C   0  0  0  0  0  0  0  0  0  0  0  0
   -6.4359   29.7840    4.4804 C   0  0  0  0  0  0  0  0  0  0  0  0
   -5.9192   28.8755    3.5546 C   0  0  0  0  0  0  0  0  0  0  0  0
   -5.6534   27.5741    3.9722 C   0  0  0  0  0  0  0  0  0  0  0  0
   -5.8772   27.1626    5.2469 N   0  0  0  0  0  0  0  0  0  0  0  0
   -6.3782   28.0645    6.1221 C   0  0  0  0  0  0  0  0  0  0  0  0
   -5.1260   26.6139    3.0640 N   0  0  0  0  0  0  0  0  0  0  0  0
   -3.8149   26.1876    3.0161 C   0  0  0  0  0  0  0  0  0  0  0  0
   -3.7509   25.2683    1.9980 C   0  0  0  0  0  0  0  0  0  0  0  0
   -4.9763   25.1086    1.4122 N   0  0  0  0  0  0  0  0  0  0  0  0
   -5.7768   25.9218    2.0682 C   0  0  0  0  0  0  0  0  0  0  0  0
   -5.9351   31.3751    8.6546 C   0  0  0  0  0  0  0  0  0  0  0  0
   -6.6257   30.8401    9.5141 O   0  0  0  0  0  0  0  0  0  0  0  0
   -6.1800   31.2109    7.3057 N   0  0  0  0  0  0  0  0  0  0  0  0
   -5.4996   31.5476    6.6385 H   0  0  0  0  0  0  0  0  0  0  0  0
   -4.7899   33.4917    8.0699 C   0  0  0  0  0  0  0  0  0  0  0  0
   -4.6983   32.2365    8.9502 C   0  0  0  0  0  0  0  0  0  0  0  0
   -3.3285   31.4801    8.8479 C   0  0  0  0  0  0  0  0  0  0  0  0
   -2.3854   31.9255    9.9872 C   0  0  0  0  0  0  0  0  0  0  0  0
   -3.4720   29.9471    8.8839 C   0  0  0  0  0  0  0  0  0  0  0  0
   -2.6305   31.8528    7.5180 C   0  0  0  0  0  0  0  0  0  0  0  0
 17 18  1  0  0  0
 18 13  1  0  0  0
 13 14  2  0  0  0
 13 15  1  0  0  0
 15  1  1  0  0  0
  1  2  1  0  0  0
  2  3  2  0  0  0
  3  4  1  0  0  0
  4  5  2  0  0  0
  5  8  1  0  0  0
  8  9  1  0  0  0
  9 10  2  0  0  0
 10 11  1  0  0  0
 11 12  2  0  0  0
  5  6  1  0  0  0
  6  7  2  0  0  0
 18 19  1  0  0  0
 19 20  1  0  0  0
 19 21  1  0  0  0
 19 22  1  0  0  0
  7  2  1  0  0  0
 12  8  1  0  0  0
 15 16  1  0  0  0
M  END
> <minimizedAffinity>
-8.06404

$$$$
OCNT-2312921


 25 27  0  0  0  0  0  0  0  0999 V2000
   -6.1128   24.6369    4.4701 C   0  0  0  0  0  0  0  0  0  0  0  0
   -5.1714   24.9712    3.4054 N   0  0  0  0  0  0  0  0  0  0  0  0
   -4.4085   26.1373    3.3918 C   0  0  0  0  0  0  0  0  0  0  0  0
   -3.3552   26.2578    2.7701 O   0  0  0  0  0  0  0  0  0  0  0  0
   -4.8915   27.3158    4.1478 C   0  0  0  0  0  0  0  0  0  0  0  0
   -5.8481   28.1740    3.5970 C   0  0  0  0  0  0  0  0  0  0  0  0
   -6.2699   29.2899    4.3178 C   0  0  0  0  0  0  0  0  0  0  0  0
   -5.7265   29.5568    5.5774 C   0  0  0  0  0  0  0  0  0  0  0  0
   -4.7437   28.7178    6.1268 C   0  0  0  0  0  0  0  0  0  0  0  0
   -4.3265   27.5946    5.3969 C   0  0  0  0  0  0  0  0  0  0  0  0
   -4.1568   29.0052    7.4852 C   0  0  0  0  0  0  0  0  0  0  0  0
   -2.7126   29.1351    7.4196 N   0  0  0  0  0  0  0  0  0  0  0  0
   -2.0125   30.1634    6.8510 C   0  0  0  0  0  0  0  0  0  0  0  0
   -0.6904   29.8574    7.0753 C   0  0  0  0  0  0  0  0  0  0  0  0
   -0.5736   28.6819    7.7713 N   0  0  0  0  0  0  0  0  0  0  0  0
   -1.8066   28.2710    7.9662 C   0  0  0  0  0  0  0  0  0  0  0  0
   -4.8019   23.9033    2.4767 C   0  0  0  0  0  0  0  0  0  0  0  0
   -5.8726   23.5976    1.4691 C   0  0  0  0  0  0  0  0  0  0  0  0
   -6.5607   22.3837    1.4975 C   0  0  0  0  0  0  0  0  0  0  0  0
   -6.2691   21.4691    2.4330 F   0  0  0  0  0  0  0  0  0  0  0  0
   -7.5559   22.0885    0.5663 C   0  0  0  0  0  0  0  0  0  0  0  0
   -7.8801   23.0173   -0.4210 C   0  0  0  0  0  0  0  0  0  0  0  0
   -7.2028   24.2347   -0.4676 C   0  0  0  0  0  0  0  0  0  0  0  0
   -6.2107   24.5129    0.4720 C   0  0  0  0  0  0  0  0  0  0  0  0
   -5.5699   25.6880    0.3978 F   0  0  0  0  0  0  0  0  0  0  0  0
  1  2  1  0  0  0
  2 17  1  0  0  0
 17 18  1  0  0  0
 18 19  2  0  0  0
 19 20  1  0  0  0
 19 21  1  0  0  0
 21 22  2  0  0  0
 22 23  1  0  0  0
 23 24  2  0  0  0
 24 25  1  0  0  0
  2  3  1  0  0  0
  3  4  2  0  0  0
  3  5  1  0  0  0
  5  6  1  0  0  0
  6  7  2  0  0  0
  7  8  1  0  0  0
  8  9  2  0  0  0
  9 11  1  0  0  0
 11 12  1  0  0  0
 12 13  1  0  0  0
 13 14  2  0  0  0
 14 15  1  0  0  0
 15 16  2  0  0  0
  9 10  1  0  0  0
 24 18  1  0  0  0
 10  5  2  0  0  0
 16 12  1  0  0  0
M  END
> <minimizedAffinity>
-9.12560

$$$$
OCNT-2312925


 23 26  0  0  0  0  0  0  0  0999 V2000
   -2.1682   25.6219    4.1071 C   0  0  0  0  0  0  0  0  0  0  0  0
   -3.2387   26.3553    4.9036 C   0  0  0  0  0  0  0  0  0  0  0  0
   -4.4741   25.5010    4.6133 C   0  0  0  0  0  0  0  0  0  0  0  0
   -4.3439   25.1784    3.1696 N   0  0  0  0  0  0  0  0  0  0  0  0
   -2.9134   25.2700    2.8053 C   0  0  0  0  0  0  0  0  0  0  0  0
   -4.9502   23.9865    2.7349 C   0  0  0  0  0  0  0  0  0  0  0  0
   -4.7335   22.8646    3.4459 N   0  0  0  0  0  0  0  0  0  0  0  0
   -5.2895   21.7395    2.9855 C   0  0  0  0  0  0  0  0  0  0  0  0
   -6.0415   21.6162    1.8880 N   0  0  0  0  0  0  0  0  0  0  0  0
   -6.2759   22.7360    1.1992 C   0  0  0  0  0  0  0  0  0  0  0  0
   -7.0731   22.6591    0.0628 C   0  0  0  0  0  0  0  0  0  0  0  0
   -7.3836   23.7865   -0.7024 C   0  0  0  0  0  0  0  0  0  0  0  0
   -6.8942   25.0285   -0.3255 C   0  0  0  0  0  0  0  0  0  0  0  0
   -6.0904   25.1289    0.8076 C   0  0  0  0  0  0  0  0  0  0  0  0
   -5.7583   23.9833    1.5769 C   0  0  0  0  0  0  0  0  0  0  0  0
    0.1922   25.8117    4.1671 C   0  0  0  0  0  0  0  0  0  0  0  0
   -1.0414   26.4732    3.9207 O   0  0  0  0  0  0  0  0  0  0  0  0
   -5.8169   26.1817    4.9756 C   0  0  0  0  0  0  0  0  0  0  0  0
   -5.8037   27.6423    5.1741 N   0  0  0  0  0  0  0  0  0  0  0  0
   -6.8596   28.0708    6.0940 C   0  0  0  0  0  0  0  0  0  0  0  0
   -6.8830   29.5752    5.8929 C   0  0  0  0  0  0  0  0  0  0  0  0
   -6.4762   29.7764    4.4390 C   0  0  0  0  0  0  0  0  0  0  0  0
   -6.0476   28.3994    3.9440 C   0  0  0  0  0  0  0  0  0  0  0  0
 16 17  1  0  0  0
 17  1  1  0  0  0
  1  2  1  0  0  0
  2  3  1  0  0  0
  3 18  1  0  0  0
 18 19  1  0  0  0
 19 20  1  0  0  0
 20 21  1  0  0  0
 21 22  1  0  0  0
 22 23  1  0  0  0
  3  4  1  0  0  0
  4  6  1  0  0  0
  6  7  1  0  0  0
  7  8  2  0  0  0
  8  9  1  0  0  0
  9 10  2  0  0  0
 10 11  1  0  0  0
 11 12  2  0  0  0
 12 13  1  0  0  0
 13 14  2  0  0  0
 14 15  1  0  0  0
  4  5  1  0  0  0
  5  1  1  0  0  0
 23 19  1  0  0  0
 15  6  2  0  0  0
 15 10  1  0  0  0
M  END
> <minimizedAffinity>
-8.34164

$$$$
OCNT-2312932


 23 25  0  0  0  0  0  0  0  0999 V2000
   -4.3396   27.9616    5.7741 N   0  0  0  0  0  0  0  0  0  0  0  0
   -3.4830   26.8559    5.3739 C   0  0  0  0  0  0  0  0  0  0  0  0
   -3.8252   26.4197    3.9453 C   0  0  0  0  0  0  0  0  0  0  0  0
   -5.3282   26.5098    3.6191 C   0  0  0  0  0  0  0  0  0  0  0  0
   -6.1738   26.5507    4.8969 C   0  0  0  0  0  0  0  0  0  0  0  0
   -5.7869   27.7547    5.7591 C   0  0  0  0  0  0  0  0  0  0  0  0
   -5.3567   31.1359    9.2013 C   0  0  0  0  0  0  0  0  0  0  0  0
   -4.3295   30.3456    8.4489 C   0  0  0  0  0  0  0  0  0  0  0  0
   -2.9928   30.4812    8.7410 C   0  0  0  0  0  0  0  0  0  0  0  0
   -2.1224   29.7117    7.9945 C   0  0  0  0  0  0  0  0  0  0  0  0
   -2.5627   28.8770    7.0187 N   0  0  0  0  0  0  0  0  0  0  0  0
   -3.8797   28.7941    6.7864 C   0  0  0  0  0  0  0  0  0  0  0  0
   -4.7725   29.5137    7.4864 N   0  0  0  0  0  0  0  0  0  0  0  0
   -0.6316   29.8270    8.2522 C   0  0  0  0  0  0  0  0  0  0  0  0
   -0.1231   28.7184    8.8693 F   0  0  0  0  0  0  0  0  0  0  0  0
    0.1225   29.9987    7.1300 F   0  0  0  0  0  0  0  0  0  0  0  0
   -0.3237   30.8710    9.0754 F   0  0  0  0  0  0  0  0  0  0  0  0
   -5.7624   25.4144    2.6638 C   0  0  0  0  0  0  0  0  0  0  0  0
   -6.1986   24.1821    3.1617 C   0  0  0  0  0  0  0  0  0  0  0  0
   -6.5952   23.1991    2.2668 C   0  0  0  0  0  0  0  0  0  0  0  0
   -6.5910   23.3556    0.9268 N   0  0  0  0  0  0  0  0  0  0  0  0
   -6.1738   24.5516    0.4627 C   0  0  0  0  0  0  0  0  0  0  0  0
   -5.7580   25.5955    1.2764 C   0  0  0  0  0  0  0  0  0  0  0  0
  7  8  1  0  0  0
  8  9  2  0  0  0
  9 10  1  0  0  0
 10 14  1  0  0  0
 14 15  1  0  0  0
 14 16  1  0  0  0
 14 17  1  0  0  0
 10 11  2  0  0  0
 11 12  1  0  0  0
 12  1  1  0  0  0
  1  2  1  0  0  0
  2  3  1  0  0  0
  3  4  1  0  0  0
  4 18  1  0  0  0
 18 19  2  0  0  0
 19 20  1  0  0  0
 20 21  2  0  0  0
 21 22  1  0  0  0
 22 23  2  0  0  0
  4  5  1  0  0  0
  5  6  1  0  0  0
 12 13  2  0  0  0
 13  8  1  0  0  0
  6  1  1  0  0  0
 23 18  1  0  0  0
M  END
> <minimizedAffinity>
-8.98312

$$$$
OCNT-2312941


 32 35  0  0  0  0  0  0  0  0999 V2000
   -5.4579   20.8852    2.0136 O   0  0  0  0  0  0  0  0  0  0  0  0
   -5.5841   22.0601    2.3411 C   0  0  0  0  0  0  0  0  0  0  0  0
   -5.2852   22.4632    3.6168 N   0  0  0  0  0  0  0  0  0  0  0  0
   -5.6536   23.7532    4.1549 C   0  0  0  0  0  0  0  0  0  0  0  0
   -4.8186   24.9150    3.5655 C   0  0  0  0  0  0  0  0  0  0  0  0
   -5.4926   26.2527    3.9520 C   0  0  0  0  0  0  0  0  0  0  0  0
   -4.4734   27.3877    4.0254 C   0  0  0  0  0  0  0  0  0  0  0  0
   -3.4265   27.1664    5.0380 N   0  0  0  0  0  0  0  0  0  0  0  0
   -3.2150   25.7453    5.3553 C   0  0  0  0  0  0  0  0  0  0  0  0
   -3.3716   24.8665    4.1188 C   0  0  0  0  0  0  0  0  0  0  0  0
   -4.6620   24.8763    2.1271 O   0  0  0  0  0  0  0  0  0  0  0  0
   -5.6947   24.3945    1.3769 C   0  0  0  0  0  0  0  0  0  0  0  0
   -6.2224   25.2781    0.4307 C   0  0  0  0  0  0  0  0  0  0  0  0
   -7.2071   24.8526   -0.4623 C   0  0  0  0  0  0  0  0  0  0  0  0
   -7.6479   23.5312   -0.4351 C   0  0  0  0  0  0  0  0  0  0  0  0
   -7.1030   22.6358    0.4862 C   0  0  0  0  0  0  0  0  0  0  0  0
   -6.1278   23.0648    1.3989 C   0  0  0  0  0  0  0  0  0  0  0  0
   -5.0032   21.7117    4.2350 H   0  0  0  0  0  0  0  0  0  0  0  0
   -3.6452   27.9486    6.2781 C   0  0  0  0  0  0  0  0  0  0  0  0
   -2.4061   27.9045    7.2120 C   0  0  0  0  0  0  0  0  0  0  0  0
   -2.5109   26.7484    8.0528 O   0  0  0  0  0  0  0  0  0  0  0  0
   -2.8754   26.0553    7.4657 H   0  0  0  0  0  0  0  0  0  0  0  0
   -2.2987   29.1575    8.0673 C   0  0  0  0  0  0  0  0  0  0  0  0
   -3.4682   29.7272    8.6072 C   0  0  0  0  0  0  0  0  0  0  0  0
   -3.4183   30.8885    9.3773 C   0  0  0  0  0  0  0  0  0  0  0  0
   -2.1985   31.5067    9.6226 C   0  0  0  0  0  0  0  0  0  0  0  0
   -1.0272   30.9634    9.0970 C   0  0  0  0  0  0  0  0  0  0  0  0
   -1.0564   29.7931    8.3125 C   0  0  0  0  0  0  0  0  0  0  0  0
    0.2450   29.2425    7.7723 C   0  0  0  0  0  0  0  0  0  0  0  0
    0.5912   29.7853    6.5733 F   0  0  0  0  0  0  0  0  0  0  0  0
    0.2334   27.8932    7.5797 F   0  0  0  0  0  0  0  0  0  0  0  0
    1.2988   29.4792    8.6062 F   0  0  0  0  0  0  0  0  0  0  0  0
  1  2  2  0  0  0
  2  3  1  0  0  0
  3  4  1  0  0  0
  4  5  1  0  0  0
  5  6  1  0  0  0
  6  7  1  0  0  0
  7  8  1  0  0  0
  8 19  1  0  0  0
 19 20  1  0  0  0
 20 21  1  0  0  0
 20 23  1  0  0  0
 23 24  2  0  0  0
 24 25  1  0  0  0
 25 26  2  0  0  0
 26 27  1  0  0  0
 27 28  2  0  0  0
 28 29  1  0  0  0
 29 30  1  0  0  0
 29 31  1  0  0  0
 29 32  1  0  0  0
  8  9  1  0  0  0
  9 10  1  0  0  0
  5 11  1  0  0  0
 11 12  1  0  0  0
 12 13  2  0  0  0
 13 14  1  0  0  0
 14 15  2  0  0  0
 15 16  1  0  0  0
 16 17  2  0  0  0
 17  2  1  0  0  0
 10  5  1  0  0  0
 17 12  1  0  0  0
 28 23  1  0  0  0
  3 18  1  0  0  0
 21 22  1  0  0  0
M  END
> <minimizedAffinity>
-12.32738

$$$$
OCNT-2312943


 32 35  0  0  0  0  0  0  0  0999 V2000
   -2.7299   27.7377    6.5344 C   0  0  0  0  0  0  0  0  0  0  0  0
   -1.6352   27.3334    6.9178 O   0  0  0  0  0  0  0  0  0  0  0  0
   -3.4065   27.2081    5.4471 N   0  0  0  0  0  0  0  0  0  0  0  0
   -4.6518   27.7570    4.8922 C   0  0  0  0  0  0  0  0  0  0  0  0
   -4.9282   27.2989    3.4559 C   0  0  0  0  0  0  0  0  0  0  0  0
   -4.8231   25.8469    3.2593 N   0  0  0  0  0  0  0  0  0  0  0  0
   -5.4114   25.3205    2.1081 C   0  0  0  0  0  0  0  0  0  0  0  0
   -6.0561   26.0414    1.3433 O   0  0  0  0  0  0  0  0  0  0  0  0
   -3.9025   25.1135    4.1560 C   0  0  0  0  0  0  0  0  0  0  0  0
   -4.6795   24.3939    5.2660 C   0  0  0  0  0  0  0  0  0  0  0  0
   -2.8317   26.0488    4.7627 C   0  0  0  0  0  0  0  0  0  0  0  0
   -1.5911   30.4850    6.4659 C   0  0  0  0  0  0  0  0  0  0  0  0
   -2.8470   30.1277    7.2160 C   0  0  0  0  0  0  0  0  0  0  0  0
   -3.3809   28.8892    7.2387 C   0  0  0  0  0  0  0  0  0  0  0  0
   -4.5566   28.6097    7.8903 N   0  0  0  0  0  0  0  0  0  0  0  0
   -5.3000   29.5238    8.5877 C   0  0  0  0  0  0  0  0  0  0  0  0
   -6.3443   29.2129    9.1479 O   0  0  0  0  0  0  0  0  0  0  0  0
   -4.7609   30.9038    8.6337 C   0  0  0  0  0  0  0  0  0  0  0  0
   -5.4615   31.8854    9.3479 C   0  0  0  0  0  0  0  0  0  0  0  0
   -4.9680   33.1856    9.4039 C   0  0  0  0  0  0  0  0  0  0  0  0
   -3.7805   33.5010    8.7491 C   0  0  0  0  0  0  0  0  0  0  0  0
   -3.0826   32.5191    8.0356 C   0  0  0  0  0  0  0  0  0  0  0  0
   -3.5597   31.2002    7.9628 C   0  0  0  0  0  0  0  0  0  0  0  0
   -4.9429   27.6741    7.8294 H   0  0  0  0  0  0  0  0  0  0  0  0
   -5.1874   23.8394    1.8132 C   0  0  0  0  0  0  0  0  0  0  0  0
   -6.2560   22.9292    2.3763 C   0  0  0  0  0  0  0  0  0  0  0  0
   -6.3463   21.5922    1.9623 C   0  0  0  0  0  0  0  0  0  0  0  0
   -7.3401   20.7560    2.4756 C   0  0  0  0  0  0  0  0  0  0  0  0
   -8.2569   21.2483    3.4038 C   0  0  0  0  0  0  0  0  0  0  0  0
   -8.1793   22.5780    3.8112 C   0  0  0  0  0  0  0  0  0  0  0  0
   -9.3129   23.1892    4.9533 Cl  0  0  0  0  0  0  0  0  0  0  0  0
   -7.1891   23.4190    3.3024 C   0  0  0  0  0  0  0  0  0  0  0  0
 12 13  1  0  0  0
 13 14  2  0  0  0
 14  1  1  0  0  0
  1  2  2  0  0  0
  1  3  1  0  0  0
  3  4  1  0  0  0
  4  5  1  0  0  0
  5  6  1  0  0  0
  6  7  1  0  0  0
  7  8  2  0  0  0
  7 25  1  0  0  0
 25 26  1  0  0  0
 26 27  2  0  0  0
 27 28  1  0  0  0
 28 29  2  0  0  0
 29 30  1  0  0  0
 30 31  1  0  0  0
 30 32  2  0  0  0
  6  9  1  0  0  0
  9 10  1  0  0  0
  9 11  1  0  0  0
 14 15  1  0  0  0
 15 16  1  0  0  0
 16 17  2  0  0  0
 16 18  1  0  0  0
 18 19  2  0  0  0
 19 20  1  0  0  0
 20 21  2  0  0  0
 21 22  1  0  0  0
 22 23  2  0  0  0
 23 13  1  0  0  0
 11  3  1  0  0  0
 23 18  1  0  0  0
 32 26  1  0  0  0
 15 24  1  0  0  0
M  END
> <minimizedAffinity>
-10.66179

$$$$
OCNT-2312947


 35 39  0  0  0  0  0  0  0  0999 V2000
   -3.1543   25.9152    5.2640 C   0  0  0  0  0  0  0  0  0  0  0  0
   -4.4573   25.4946    4.5651 C   0  0  0  0  0  0  0  0  0  0  0  0
   -5.6787   25.9522    5.3368 C   0  0  0  0  0  0  0  0  0  0  0  0
   -5.5945   27.4449    5.4716 C   0  0  0  0  0  0  0  0  0  0  0  0
   -6.7311   28.2438    5.2914 C   0  0  0  0  0  0  0  0  0  0  0  0
   -6.6405   29.6288    5.4106 C   0  0  0  0  0  0  0  0  0  0  0  0
   -5.4161   30.2211    5.7054 C   0  0  0  0  0  0  0  0  0  0  0  0
   -4.2841   29.4273    5.9022 C   0  0  0  0  0  0  0  0  0  0  0  0
   -4.3681   28.0324    5.8177 C   0  0  0  0  0  0  0  0  0  0  0  0
   -3.2293   27.2000    6.0089 N   0  0  0  0  0  0  0  0  0  0  0  0
   -2.2127   27.4125    6.9441 C   0  0  0  0  0  0  0  0  0  0  0  0
   -1.1348   26.8179    6.8446 O   0  0  0  0  0  0  0  0  0  0  0  0
   -2.4918   28.2549    8.1927 C   0  0  0  0  0  0  0  0  0  0  0  0
   -3.9715   28.6609    8.2333 C   0  0  0  0  0  0  0  0  0  0  0  0
   -4.2016   29.9353    9.0426 C   0  0  0  0  0  0  0  0  0  0  0  0
   -3.3778   31.0236    8.5403 N   0  0  0  0  0  0  0  0  0  0  0  0
   -2.2504   30.7369    7.6672 C   0  0  0  0  0  0  0  0  0  0  0  0
   -1.5478   29.4732    8.1617 C   0  0  0  0  0  0  0  0  0  0  0  0
   -3.9005   32.3017    8.5471 C   0  0  0  0  0  0  0  0  0  0  0  0
   -4.3104   32.8411    7.3845 N   0  0  0  0  0  0  0  0  0  0  0  0
   -4.8295   34.0831    7.4150 C   0  0  0  0  0  0  0  0  0  0  0  0
   -4.9636   34.8206    8.5613 C   0  0  0  0  0  0  0  0  0  0  0  0
   -4.5278   34.1976    9.7003 C   0  0  0  0  0  0  0  0  0  0  0  0
   -4.0042   32.9576    9.7164 N   0  0  0  0  0  0  0  0  0  0  0  0
   -2.3061   26.3188    3.0386 O   0  0  0  0  0  0  0  0  0  0  0  0
   -2.0501   25.9228    4.1747 C   0  0  0  0  0  0  0  0  0  0  0  0
   -0.7867   25.6323    4.6642 N   0  0  0  0  0  0  0  0  0  0  0  0
   -0.7595   25.3404    5.6333 H   0  0  0  0  0  0  0  0  0  0  0  0
    0.4365   25.6271    3.9696 C   0  0  0  0  0  0  0  0  0  0  0  0
    1.3784   24.5978    4.0530 C   0  0  0  0  0  0  0  0  0  0  0  0
    2.5718   24.6704    3.3270 C   0  0  0  0  0  0  0  0  0  0  0  0
    2.8206   25.7717    2.5194 C   0  0  0  0  0  0  0  0  0  0  0  0
    3.9633   25.8393    1.8242 F   0  0  0  0  0  0  0  0  0  0  0  0
    1.8986   26.8048    2.4233 C   0  0  0  0  0  0  0  0  0  0  0  0
    0.7069   26.7324    3.1488 C   0  0  0  0  0  0  0  0  0  0  0  0
 25 26  2  0  0  0
 26 27  1  0  0  0
 27 29  1  0  0  0
 29 30  1  0  0  0
 30 31  2  0  0  0
 31 32  1  0  0  0
 32 33  1  0  0  0
 32 34  2  0  0  0
 34 35  1  0  0  0
 26  1  1  0  0  0
  1  2  1  0  0  0
  2  3  1  0  0  0
  3  4  1  0  0  0
  4  5  2  0  0  0
  5  6  1  0  0  0
  6  7  2  0  0  0
  7  8  1  0  0  0
  8  9  2  0  0  0
  9 10  1  0  0  0
 10 11  1  0  0  0
 11 12  2  0  0  0
 11 13  1  0  0  0
 13 14  1  0  0  0
 14 15  1  0  0  0
 15 16  1  0  0  0
 16 19  1  0  0  0
 19 20  2  0  0  0
 20 21  1  0  0  0
 21 22  2  0  0  0
 22 23  1  0  0  0
 23 24  2  0  0  0
 16 17  1  0  0  0
 17 18  1  0  0  0
 35 29  2  0  0  0
 10  1  1  0  0  0
 18 13  1  0  0  0
  9  4  1  0  0  0
 24 19  1  0  0  0
 27 28  1  0  0  0
M  END
> <minimizedAffinity>
-10.05103

$$$$
OCNT-2312951


 27 29  0  0  0  0  0  0  0  0999 V2000
   -1.4124   27.6318    6.3305 N   0  0  0  0  0  0  0  0  0  0  0  0
   -2.2706   26.5513    6.2290 C   0  0  0  0  0  0  0  0  0  0  0  0
   -2.4262   25.7358    7.1330 O   0  0  0  0  0  0  0  0  0  0  0  0
   -1.5985   28.3840    5.6866 H   0  0  0  0  0  0  0  0  0  0  0  0
   -2.9739   26.4842    4.9467 C   0  0  0  0  0  0  0  0  0  0  0  0
   -4.2145   27.0532    4.6558 C   0  0  0  0  0  0  0  0  0  0  0  0
   -4.5203   26.7245    3.3475 N   0  0  0  0  0  0  0  0  0  0  0  0
   -5.7451   27.0675    2.6516 C   0  0  0  0  0  0  0  0  0  0  0  0
   -3.4981   26.0006    2.7899 C   0  0  0  0  0  0  0  0  0  0  0  0
   -2.5281   25.8378    3.7493 C   0  0  0  0  0  0  0  0  0  0  0  0
   -5.0848   27.8884    5.4868 C   0  0  0  0  0  0  0  0  0  0  0  0
   -4.6068   29.0969    6.0104 C   0  0  0  0  0  0  0  0  0  0  0  0
   -5.4356   29.9071    6.7895 C   0  0  0  0  0  0  0  0  0  0  0  0
   -6.7463   29.5118    7.0557 C   0  0  0  0  0  0  0  0  0  0  0  0
   -7.2276   28.3071    6.5444 C   0  0  0  0  0  0  0  0  0  0  0  0
   -6.3997   27.4978    5.7622 C   0  0  0  0  0  0  0  0  0  0  0  0
   -0.8007   27.9565    7.6098 C   0  0  0  0  0  0  0  0  0  0  0  0
   -0.0068   29.2867    7.6223 C   0  0  0  0  0  0  0  0  0  0  0  0
    1.1358   29.2450    8.6607 C   0  0  0  0  0  0  0  0  0  0  0  0
    0.6396   29.5173    6.2340 C   0  0  0  0  0  0  0  0  0  0  0  0
   -3.8687   33.4938    8.6732 C   0  0  0  0  0  0  0  0  0  0  0  0
   -2.8787   32.3962    8.4542 C   0  0  0  0  0  0  0  0  0  0  0  0
   -2.1550   31.8442    9.5081 C   0  0  0  0  0  0  0  0  0  0  0  0
   -1.2181   30.8420    9.2567 C   0  0  0  0  0  0  0  0  0  0  0  0
   -1.0020   30.4141    7.9444 C   0  0  0  0  0  0  0  0  0  0  0  0
   -1.7022   30.9467    6.9119 N   0  0  0  0  0  0  0  0  0  0  0  0
   -2.6066   31.9166    7.1818 C   0  0  0  0  0  0  0  0  0  0  0  0
 21 22  1  0  0  0
 22 23  2  0  0  0
 23 24  1  0  0  0
 24 25  2  0  0  0
 25 18  1  0  0  0
 18 19  1  0  0  0
 18 20  1  0  0  0
 18 17  1  0  0  0
 17  1  1  0  0  0
  1  2  1  0  0  0
  2  3  2  0  0  0
  2  5  1  0  0  0
  5  6  2  0  0  0
  6 11  1  0  0  0
 11 12  2  0  0  0
 12 13  1  0  0  0
 13 14  2  0  0  0
 14 15  1  0  0  0
 15 16  2  0  0  0
  6  7  1  0  0  0
  7  8  1  0  0  0
  7  9  1  0  0  0
  9 10  2  0  0  0
 25 26  1  0  0  0
 26 27  2  0  0  0
 27 22  1  0  0  0
 10  5  1  0  0  0
 16 11  1  0  0  0
  1  4  1  0  0  0
M  END
> <minimizedAffinity>
-9.89154

$$$$
OCNT-2312959


 22 24  0  0  0  0  0  0  0  0999 V2000
   -3.1105   26.6623    5.3463 C   0  0  0  0  0  0  0  0  0  0  0  0
   -1.9407   26.3035    4.4338 C   0  0  0  0  0  0  0  0  0  0  0  0
   -2.6196   25.9902    3.1040 C   0  0  0  0  0  0  0  0  0  0  0  0
   -3.9062   25.4062    3.4818 N   0  0  0  0  0  0  0  0  0  0  0  0
   -4.1732   25.6287    4.9046 C   0  0  0  0  0  0  0  0  0  0  0  0
   -4.7572   24.7632    2.6176 C   0  0  0  0  0  0  0  0  0  0  0  0
   -5.0979   23.4091    2.7872 C   0  0  0  0  0  0  0  0  0  0  0  0
   -5.9642   22.7447    1.9109 C   0  0  0  0  0  0  0  0  0  0  0  0
   -6.5110   23.4302    0.8376 C   0  0  0  0  0  0  0  0  0  0  0  0
   -7.3394   22.7803    0.0071 F   0  0  0  0  0  0  0  0  0  0  0  0
   -6.1986   24.7672    0.6355 C   0  0  0  0  0  0  0  0  0  0  0  0
   -6.8713   25.6343   -0.6927 Cl  0  0  0  0  0  0  0  0  0  0  0  0
   -5.3310   25.4229    1.5166 C   0  0  0  0  0  0  0  0  0  0  0  0
   -2.7734   26.5195    6.7682 N   0  0  0  0  0  0  0  0  0  0  0  0
   -3.5693   26.2064    7.3185 H   0  0  0  0  0  0  0  0  0  0  0  0
    0.9924   29.1219    8.2845 C   0  0  0  0  0  0  0  0  0  0  0  0
   -0.4866   28.9379    8.1518 C   0  0  0  0  0  0  0  0  0  0  0  0
   -1.2806   29.9141    8.6228 N   0  0  0  0  0  0  0  0  0  0  0  0
   -2.5999   29.7208    8.4718 C   0  0  0  0  0  0  0  0  0  0  0  0
   -3.1375   28.6134    7.8599 C   0  0  0  0  0  0  0  0  0  0  0  0
   -2.2466   27.6712    7.3847 C   0  0  0  0  0  0  0  0  0  0  0  0
   -0.9216   27.8249    7.5306 N   0  0  0  0  0  0  0  0  0  0  0  0
 16 17  1  0  0  0
 17 18  2  0  0  0
 18 19  1  0  0  0
 19 20  2  0  0  0
 20 21  1  0  0  0
 21 14  1  0  0  0
 14  1  1  0  0  0
  1  2  1  0  0  0
  2  3  1  0  0  0
  3  4  1  0  0  0
  4  6  1  0  0  0
  6  7  1  0  0  0
  7  8  2  0  0  0
  8  9  1  0  0  0
  9 10  1  0  0  0
  9 11  2  0  0  0
 11 12  1  0  0  0
 11 13  1  0  0  0
  4  5  1  0  0  0
 21 22  2  0  0  0
 22 17  1  0  0  0
  5  1  1  0  0  0
 13  6  2  0  0  0
 14 15  1  0  0  0
M  END
> <minimizedAffinity>
-8.69452

$$$$
OCNT-2312961


 25 27  0  0  0  0  0  0  0  0999 V2000
   -2.7535   26.7205    5.8931 C   0  0  0  0  0  0  0  0  0  0  0  0
   -2.4564   25.6391    6.3910 O   0  0  0  0  0  0  0  0  0  0  0  0
   -2.1869   27.9087    6.2834 N   0  0  0  0  0  0  0  0  0  0  0  0
   -2.4038   28.7582    5.7603 H   0  0  0  0  0  0  0  0  0  0  0  0
   -4.9893   27.5417    4.9645 C   0  0  0  0  0  0  0  0  0  0  0  0
   -5.9156   27.5317    3.9116 C   0  0  0  0  0  0  0  0  0  0  0  0
   -5.6567   26.8037    2.7471 C   0  0  0  0  0  0  0  0  0  0  0  0
   -4.4734   26.0878    2.6297 C   0  0  0  0  0  0  0  0  0  0  0  0
   -4.2304   25.3980    1.5081 F   0  0  0  0  0  0  0  0  0  0  0  0
   -3.5443   26.0750    3.6583 C   0  0  0  0  0  0  0  0  0  0  0  0
   -3.8030   26.7885    4.8381 C   0  0  0  0  0  0  0  0  0  0  0  0
   -6.4894   28.5849    6.5093 C   0  0  0  0  0  0  0  0  0  0  0  0
   -5.1619   28.2554    6.1208 O   0  0  0  0  0  0  0  0  0  0  0  0
   -1.0454   27.9680    7.1858 C   0  0  0  0  0  0  0  0  0  0  0  0
    0.1177   28.7283    6.5609 C   0  0  0  0  0  0  0  0  0  0  0  0
   -0.2834   30.1920    6.7494 C   0  0  0  0  0  0  0  0  0  0  0  0
   -1.0876   30.2260    7.9929 N   0  0  0  0  0  0  0  0  0  0  0  0
   -1.3292   28.8299    8.4240 C   0  0  0  0  0  0  0  0  0  0  0  0
   -2.2484   31.0093    7.8234 C   0  0  0  0  0  0  0  0  0  0  0  0
   -2.8851   30.9728    6.6232 N   0  0  0  0  0  0  0  0  0  0  0  0
   -4.0023   31.7165    6.4596 C   0  0  0  0  0  0  0  0  0  0  0  0
   -4.5299   32.5392    7.4361 C   0  0  0  0  0  0  0  0  0  0  0  0
   -3.8762   32.5969    8.6596 C   0  0  0  0  0  0  0  0  0  0  0  0
   -2.7279   31.8287    8.8635 C   0  0  0  0  0  0  0  0  0  0  0  0
   -1.9701   31.9130   10.4153 Cl  0  0  0  0  0  0  0  0  0  0  0  0
 12 13  1  0  0  0
 13  5  1  0  0  0
  5  6  1  0  0  0
  6  7  2  0  0  0
  7  8  1  0  0  0
  8  9  1  0  0  0
  8 10  2  0  0  0
 10 11  1  0  0  0
 11  1  1  0  0  0
  1  2  2  0  0  0
  1  3  1  0  0  0
  3 14  1  0  0  0
 14 15  1  0  0  0
 15 16  1  0  0  0
 16 17  1  0  0  0
 17 19  1  0  0  0
 19 20  1  0  0  0
 20 21  2  0  0  0
 21 22  1  0  0  0
 22 23  2  0  0  0
 23 24  1  0  0  0
 24 25  1  0  0  0
 17 18  1  0  0  0
 11  5  2  0  0  0
 18 14  1  0  0  0
 24 19  2  0  0  0
  3  4  1  0  0  0
M  END
> <minimizedAffinity>
-8.60656

$$$$
OCNT-2312969


 25 27  0  0  0  0  0  0  0  0999 V2000
   -3.0021   25.6517    4.0923 C   0  0  0  0  0  0  0  0  0  0  0  0
   -1.6313   25.5875    3.8352 C   0  0  0  0  0  0  0  0  0  0  0  0
   -0.7211   26.1467    4.7347 C   0  0  0  0  0  0  0  0  0  0  0  0
   -1.1837   26.7600    5.8953 C   0  0  0  0  0  0  0  0  0  0  0  0
   -2.5003   26.8448    6.1623 N   0  0  0  0  0  0  0  0  0  0  0  0
   -3.3660   26.2943    5.2737 C   0  0  0  0  0  0  0  0  0  0  0  0
   -5.9202   23.9894    1.3866 C   0  0  0  0  0  0  0  0  0  0  0  0
   -5.6832   25.3652    1.4216 C   0  0  0  0  0  0  0  0  0  0  0  0
   -4.7345   25.9022    2.3030 C   0  0  0  0  0  0  0  0  0  0  0  0
   -3.9967   25.0834    3.1721 C   0  0  0  0  0  0  0  0  0  0  0  0
   -4.2395   23.7025    3.1301 C   0  0  0  0  0  0  0  0  0  0  0  0
   -5.1872   23.1633    2.2512 C   0  0  0  0  0  0  0  0  0  0  0  0
   -5.4201   21.4484    2.2724 Cl  0  0  0  0  0  0  0  0  0  0  0  0
   -7.4596   24.1712   -0.4315 C   0  0  0  0  0  0  0  0  0  0  0  0
   -6.8247   23.3762    0.5607 O   0  0  0  0  0  0  0  0  0  0  0  0
   -0.2416   27.3393    6.7572 N   0  0  0  0  0  0  0  0  0  0  0  0
   -0.5503   27.2385    7.7185 H   0  0  0  0  0  0  0  0  0  0  0  0
    0.0734   28.7356    6.4585 C   0  0  0  0  0  0  0  0  0  0  0  0
   -0.2686   29.6897    7.5618 C   0  0  0  0  0  0  0  0  0  0  0  0
    0.3146   29.7869    8.8095 C   0  0  0  0  0  0  0  0  0  0  0  0
   -0.3230   30.8000    9.4562 N   0  0  0  0  0  0  0  0  0  0  0  0
   -1.2878   31.3765    8.7250 N   0  0  0  0  0  0  0  0  0  0  0  0
   -1.2586   30.7123    7.5628 C   0  0  0  0  0  0  0  0  0  0  0  0
   -2.1963   31.0806    6.4723 C   0  0  0  0  0  0  0  0  0  0  0  0
   -0.1545   31.1519   10.3926 H   0  0  0  0  0  0  0  0  0  0  0  0
 14 15  1  0  0  0
 15  7  1  0  0  0
  7  8  1  0  0  0
  8  9  2  0  0  0
  9 10  1  0  0  0
 10  1  1  0  0  0
  1  2  2  0  0  0
  2  3  1  0  0  0
  3  4  2  0  0  0
  4 16  1  0  0  0
 16 18  1  0  0  0
 18 19  1  0  0  0
 19 20  2  0  0  0
 20 21  1  0  0  0
 21 22  1  0  0  0
 22 23  2  0  0  0
 23 24  1  0  0  0
  4  5  1  0  0  0
  5  6  2  0  0  0
 10 11  2  0  0  0
 11 12  1  0  0  0
 12 13  1  0  0  0
 12  7  2  0  0  0
  6  1  1  0  0  0
 23 19  1  0  0  0
 16 17  1  0  0  0
 21 25  1  0  0  0
M  END
> <minimizedAffinity>
-8.89689

$$$$
OCNT-2312992


 26 29  0  0  0  0  0  0  0  0999 V2000
   -2.3663   26.5244    4.9470 C   0  0  0  0  0  0  0  0  0  0  0  0
   -1.2741   26.1912    4.4933 O   0  0  0  0  0  0  0  0  0  0  0  0
   -3.5787   26.0251    4.4747 N   0  0  0  0  0  0  0  0  0  0  0  0
   -4.8632   26.6986    4.6206 C   0  0  0  0  0  0  0  0  0  0  0  0
   -5.9710   25.7077    4.9709 C   0  0  0  0  0  0  0  0  0  0  0  0
   -5.7290   24.2844    4.4074 C   0  0  0  0  0  0  0  0  0  0  0  0
   -4.8919   24.3918    3.1135 C   0  0  0  0  0  0  0  0  0  0  0  0
   -4.7249   23.0398    2.4214 C   0  0  0  0  0  0  0  0  0  0  0  0
   -6.0845   22.3941    2.2141 C   0  0  0  0  0  0  0  0  0  0  0  0
   -6.8332   22.2680    3.5382 C   0  0  0  0  0  0  0  0  0  0  0  0
   -7.0088   23.5610    4.2107 N   0  0  0  0  0  0  0  0  0  0  0  0
   -3.5181   25.0074    3.4299 C   0  0  0  0  0  0  0  0  0  0  0  0
   -3.6342   28.8950    7.6385 C   0  0  0  0  0  0  0  0  0  0  0  0
   -2.3940   29.2248    8.2193 C   0  0  0  0  0  0  0  0  0  0  0  0
   -1.1788   28.6773    7.7693 C   0  0  0  0  0  0  0  0  0  0  0  0
   -1.1680   27.7923    6.6970 C   0  0  0  0  0  0  0  0  0  0  0  0
   -2.3728   27.4801    6.0752 C   0  0  0  0  0  0  0  0  0  0  0  0
   -3.5854   28.0060    6.5516 C   0  0  0  0  0  0  0  0  0  0  0  0
   -6.0976   29.0184    7.4864 C   0  0  0  0  0  0  0  0  0  0  0  0
   -4.8359   29.4531    8.0880 N   0  0  0  0  0  0  0  0  0  0  0  0
   -4.9315   29.9197    9.4725 C   0  0  0  0  0  0  0  0  0  0  0  0
    0.0485   29.0377    8.4163 C   0  0  0  0  0  0  0  0  0  0  0  0
    1.0397   29.3391    8.9391 N   0  0  0  0  0  0  0  0  0  0  0  0
   -7.8607   23.5231    5.4250 C   0  0  0  0  0  0  0  0  0  0  0  0
   -8.8971   22.4680    5.7112 C   0  0  0  0  0  0  0  0  0  0  0  0
   -7.6271   22.4986    6.5063 C   0  0  0  0  0  0  0  0  0  0  0  0
 19 20  1  0  0  0
 20 21  1  0  0  0
 20 13  1  0  0  0
 13 14  2  0  0  0
 14 15  1  0  0  0
 15 22  1  0  0  0
 22 23  3  0  0  0
 15 16  2  0  0  0
 16 17  1  0  0  0
 17  1  1  0  0  0
  1  2  2  0  0  0
  1  3  1  0  0  0
  3  4  1  0  0  0
  4  5  1  0  0  0
  5  6  1  0  0  0
  6  7  1  0  0  0
  7  8  1  0  0  0
  8  9  1  0  0  0
  9 10  1  0  0  0
 10 11  1  0  0  0
 11 24  1  0  0  0
 24 25  1  0  0  0
 25 26  1  0  0  0
  7 12  1  0  0  0
 17 18  2  0  0  0
 18 13  1  0  0  0
 12  3  1  0  0  0
 11  6  1  0  0  0
 26 24  1  0  0  0
M  END
> <minimizedAffinity>
-8.54398

$$$$
OCNT-2312995


 22 25  0  0  0  0  0  0  0  0999 V2000
   -5.7804   24.8627    4.0942 C   0  0  0  0  0  0  0  0  0  0  0  0
   -4.6441   25.2533    5.0494 C   0  0  0  0  0  0  0  0  0  0  0  0
   -3.5509   25.5870    4.1522 N   0  0  0  0  0  0  0  0  0  0  0  0
   -3.7590   25.0839    2.8039 C   0  0  0  0  0  0  0  0  0  0  0  0
   -5.0202   24.2053    2.9285 C   0  0  0  0  0  0  0  0  0  0  0  0
   -5.8178   24.0707    1.6514 C   0  0  0  0  0  0  0  0  0  0  0  0
   -6.0266   25.1581    0.7893 C   0  0  0  0  0  0  0  0  0  0  0  0
   -6.7758   25.0083   -0.3796 C   0  0  0  0  0  0  0  0  0  0  0  0
   -7.3270   23.7710   -0.7024 C   0  0  0  0  0  0  0  0  0  0  0  0
   -7.1282   22.6819    0.1426 C   0  0  0  0  0  0  0  0  0  0  0  0
   -6.3785   22.8301    1.3113 C   0  0  0  0  0  0  0  0  0  0  0  0
   -2.3714   26.0783    4.5853 C   0  0  0  0  0  0  0  0  0  0  0  0
   -1.2011   25.9010    3.9630 N   0  0  0  0  0  0  0  0  0  0  0  0
   -0.0395   26.6813    4.8664 S   0  0  0  0  0  0  0  0  0  0  0  0
   -1.1676   27.1989    6.0344 C   0  0  0  0  0  0  0  0  0  0  0  0
   -2.3918   26.8118    5.7663 N   0  0  0  0  0  0  0  0  0  0  0  0
   -0.7969   28.0504    7.2830 C   0  0  0  0  0  0  0  0  0  0  0  0
    0.4604   28.8823    7.2622 C   0  0  0  0  0  0  0  0  0  0  0  0
   -0.8802   29.5535    7.1958 C   0  0  0  0  0  0  0  0  0  0  0  0
   -7.5894   24.6692    5.6800 O   0  0  0  0  0  0  0  0  0  0  0  0
   -6.8028   23.9430    4.7439 C   0  0  0  0  0  0  0  0  0  0  0  0
   -8.1496   25.2850    5.1758 H   0  0  0  0  0  0  0  0  0  0  0  0
 20 21  1  0  0  0
 21  1  1  0  0  0
  1  2  1  0  0  0
  2  3  1  0  0  0
  3 12  1  0  0  0
 12 13  2  0  0  0
 13 14  1  0  0  0
 14 15  1  0  0  0
 15 17  1  0  0  0
 17 18  1  0  0  0
 18 19  1  0  0  0
 15 16  2  0  0  0
  3  4  1  0  0  0
  4  5  1  0  0  0
  5  6  1  0  0  0
  6  7  2  0  0  0
  7  8  1  0  0  0
  8  9  2  0  0  0
  9 10  1  0  0  0
 10 11  2  0  0  0
  5  1  1  0  0  0
 11  6  1  0  0  0
 16 12  1  0  0  0
 19 17  1  0  0  0
 20 22  1  0  0  0
M  END
> <minimizedAffinity>
-8.42671

$$$$
OCNT-2312996


 24 25  0  0  0  0  0  0  0  0999 V2000
    0.4310   28.3320    7.6088 O   0  0  0  0  0  0  0  0  0  0  0  0
   -0.4614   28.9045    8.2263 C   0  0  0  0  0  0  0  0  0  0  0  0
   -1.7528   28.4273    8.3027 N   0  0  0  0  0  0  0  0  0  0  0  0
   -2.3982   28.8499    8.9616 H   0  0  0  0  0  0  0  0  0  0  0  0
   -0.2370   30.2009    8.9840 C   0  0  0  0  0  0  0  0  0  0  0  0
   -1.3799   31.1720    8.8114 C   0  0  0  0  0  0  0  0  0  0  0  0
   -2.0594   31.6945    9.9180 C   0  0  0  0  0  0  0  0  0  0  0  0
   -3.1253   32.5771    9.7326 C   0  0  0  0  0  0  0  0  0  0  0  0
   -3.5183   32.9358    8.4415 C   0  0  0  0  0  0  0  0  0  0  0  0
   -4.9612   34.1298    8.2002 Br  0  0  0  0  0  0  0  0  0  0  0  0
   -2.8584   32.4182    7.3334 C   0  0  0  0  0  0  0  0  0  0  0  0
   -1.7985   31.5409    7.5294 C   0  0  0  0  0  0  0  0  0  0  0  0
   -1.1680   31.0452    6.4579 F   0  0  0  0  0  0  0  0  0  0  0  0
   -2.1467   27.1836    7.6639 C   0  0  0  0  0  0  0  0  0  0  0  0
   -2.6559   27.4220    6.2439 C   0  0  0  0  0  0  0  0  0  0  0  0
   -3.6376   28.5956    6.1755 C   0  0  0  0  0  0  0  0  0  0  0  0
   -4.9230   28.1951    6.7418 N   0  0  0  0  0  0  0  0  0  0  0  0
   -4.9024   27.2423    7.1007 H   0  0  0  0  0  0  0  0  0  0  0  0
   -5.4194   29.0493    7.7393 C   0  0  0  0  0  0  0  0  0  0  0  0
   -6.2833   30.0725    7.3433 C   0  0  0  0  0  0  0  0  0  0  0  0
   -6.7661   30.9674    8.2940 C   0  0  0  0  0  0  0  0  0  0  0  0
   -6.3640   30.8310    9.6194 C   0  0  0  0  0  0  0  0  0  0  0  0
   -5.4966   29.7995    9.9309 C   0  0  0  0  0  0  0  0  0  0  0  0
   -5.0191   28.9173    9.0251 N   0  0  0  0  0  0  0  0  0  0  0  0
  1  2  2  0  0  0
  2  5  1  0  0  0
  5  6  1  0  0  0
  6  7  1  0  0  0
  7  8  2  0  0  0
  8  9  1  0  0  0
  9 10  1  0  0  0
  9 11  2  0  0  0
 11 12  1  0  0  0
 12 13  1  0  0  0
  2  3  1  0  0  0
  3 14  1  0  0  0
 14 15  1  0  0  0
 15 16  1  0  0  0
 16 17  1  0  0  0
 17 19  1  0  0  0
 19 20  2  0  0  0
 20 21  1  0  0  0
 21 22  2  0  0  0
 22 23  1  0  0  0
 23 24  2  0  0  0
 12  6  2  0  0  0
 24 19  1  0  0  0
  3  4  1  0  0  0
 17 18  1  0  0  0
M  END
> <minimizedAffinity>
-8.24495

$$$$
OCNT-2313019


 21 24  0  0  0  0  0  0  0  0999 V2000
   -7.3936   31.3014    7.4590 O   0  0  0  0  0  0  0  0  0  0  0  0
   -6.3200   30.8016    7.7815 C   0  0  0  0  0  0  0  0  0  0  0  0
   -5.2525   31.5397    8.4083 C   0  0  0  0  0  0  0  0  0  0  0  0
   -4.0912   30.8833    8.7348 C   0  0  0  0  0  0  0  0  0  0  0  0
   -3.7874   29.5750    8.5484 N   0  0  0  0  0  0  0  0  0  0  0  0
   -4.7559   28.9204    7.9776 C   0  0  0  0  0  0  0  0  0  0  0  0
   -5.9889   29.4484    7.5901 N   0  0  0  0  0  0  0  0  0  0  0  0
   -3.3232   31.8712    9.2874 N   0  0  0  0  0  0  0  0  0  0  0  0
   -3.9840   33.0481    9.3202 N   0  0  0  0  0  0  0  0  0  0  0  0
   -5.1815   32.8530    8.7661 N   0  0  0  0  0  0  0  0  0  0  0  0
   -1.9644   31.6880    9.8329 C   0  0  0  0  0  0  0  0  0  0  0  0
   -0.9331   30.8255    9.1429 C   0  0  0  0  0  0  0  0  0  0  0  0
   -0.7444   32.3122    9.1956 C   0  0  0  0  0  0  0  0  0  0  0  0
   -6.9645   28.5828    6.9495 C   0  0  0  0  0  0  0  0  0  0  0  0
   -6.5361   28.1892    5.5537 C   0  0  0  0  0  0  0  0  0  0  0  0
   -6.3463   29.1688    4.5666 C   0  0  0  0  0  0  0  0  0  0  0  0
   -5.9289   28.8138    3.2821 C   0  0  0  0  0  0  0  0  0  0  0  0
   -5.6937   27.4760    2.9689 C   0  0  0  0  0  0  0  0  0  0  0  0
   -5.8770   26.4979    3.9430 C   0  0  0  0  0  0  0  0  0  0  0  0
   -5.5856   24.8456    3.5613 Cl  0  0  0  0  0  0  0  0  0  0  0  0
   -6.2939   26.8456    5.2290 C   0  0  0  0  0  0  0  0  0  0  0  0
  1  2  2  0  0  0
  2  3  1  0  0  0
  3  4  2  0  0  0
  4  5  1  0  0  0
  5  6  2  0  0  0
  6  7  1  0  0  0
  7 14  1  0  0  0
 14 15  1  0  0  0
 15 16  2  0  0  0
 16 17  1  0  0  0
 17 18  2  0  0  0
 18 19  1  0  0  0
 19 20  1  0  0  0
 19 21  2  0  0  0
  4  8  1  0  0  0
  8 11  1  0  0  0
 11 12  1  0  0  0
 12 13  1  0  0  0
  8  9  1  0  0  0
  9 10  2  0  0  0
  7  2  1  0  0  0
 21 15  1  0  0  0
 13 11  1  0  0  0
 10  3  1  0  0  0
M  END
> <minimizedAffinity>
-8.44937

$$$$
OCNT-2313023


 33 35  0  0  0  0  0  0  0  0999 V2000
   -2.3835   27.5898    5.9182 C   0  0  0  0  0  0  0  0  0  0  0  0
   -3.4160   27.3191    5.0024 C   0  0  0  0  0  0  0  0  0  0  0  0
   -3.2901   26.2943    4.0556 C   0  0  0  0  0  0  0  0  0  0  0  0
   -2.1236   25.5397    3.9766 C   0  0  0  0  0  0  0  0  0  0  0  0
   -1.0976   25.7937    4.8816 C   0  0  0  0  0  0  0  0  0  0  0  0
   -1.2236   26.8029    5.8459 C   0  0  0  0  0  0  0  0  0  0  0  0
   -0.1303   26.9213    6.6525 O   0  0  0  0  0  0  0  0  0  0  0  0
   -0.2939   27.6331    7.3062 H   0  0  0  0  0  0  0  0  0  0  0  0
   -1.9120   29.7643    7.1375 C   0  0  0  0  0  0  0  0  0  0  0  0
   -0.7995   30.0069    6.6771 O   0  0  0  0  0  0  0  0  0  0  0  0
   -2.6578   28.6542    6.8118 N   0  0  0  0  0  0  0  0  0  0  0  0
   -3.5568   28.5922    7.2829 H   0  0  0  0  0  0  0  0  0  0  0  0
   -3.7837   31.2740    8.0476 C   0  0  0  0  0  0  0  0  0  0  0  0
   -4.2840   32.1446    8.9601 N   0  0  0  0  0  0  0  0  0  0  0  0
   -3.4819   32.4968    9.9870 C   0  0  0  0  0  0  0  0  0  0  0  0
   -2.1961   32.0184   10.1515 C   0  0  0  0  0  0  0  0  0  0  0  0
   -1.7028   31.1236    9.2055 C   0  0  0  0  0  0  0  0  0  0  0  0
   -2.5001   30.7285    8.1204 C   0  0  0  0  0  0  0  0  0  0  0  0
   -4.6015   30.9060    6.9946 O   0  0  0  0  0  0  0  0  0  0  0  0
   -6.3592   29.4265    6.3719 C   0  0  0  0  0  0  0  0  0  0  0  0
   -5.8978   30.4501    7.3945 C   0  0  0  0  0  0  0  0  0  0  0  0
   -4.6203   25.9950    2.9148 S   0  0  0  0  0  0  0  0  0  0  0  0
   -5.5313   27.1171    3.0113 O   0  0  0  0  0  0  0  0  0  0  0  0
   -4.0483   25.5995    1.6466 O   0  0  0  0  0  0  0  0  0  0  0  0
   -5.4266   24.6837    3.6087 N   0  0  0  0  0  0  0  0  0  0  0  0
   -5.1722   24.5461    4.5853 H   0  0  0  0  0  0  0  0  0  0  0  0
   -5.7199   23.5368    2.8199 C   0  0  0  0  0  0  0  0  0  0  0  0
   -5.2039   22.2846    3.1571 C   0  0  0  0  0  0  0  0  0  0  0  0
   -5.5272   21.1641    2.3897 C   0  0  0  0  0  0  0  0  0  0  0  0
   -6.3655   21.2972    1.2833 C   0  0  0  0  0  0  0  0  0  0  0  0
   -6.8737   22.5514    0.9487 C   0  0  0  0  0  0  0  0  0  0  0  0
   -7.9071   22.7166   -0.4172 Cl  0  0  0  0  0  0  0  0  0  0  0  0
   -6.5546   23.6746    1.7109 C   0  0  0  0  0  0  0  0  0  0  0  0
 20 21  1  0  0  0
 21 19  1  0  0  0
 19 13  1  0  0  0
 13 14  1  0  0  0
 14 15  2  0  0  0
 15 16  1  0  0  0
 16 17  2  0  0  0
 17 18  1  0  0  0
 18  9  1  0  0  0
  9 10  2  0  0  0
  9 11  1  0  0  0
 11  1  1  0  0  0
  1  2  1  0  0  0
  2  3  2  0  0  0
  3 22  1  0  0  0
 22 23  2  0  0  0
 22 24  2  0  0  0
 22 25  1  0  0  0
 25 27  1  0  0  0
 27 28  2  0  0  0
 28 29  1  0  0  0
 29 30  2  0  0  0
 30 31  1  0  0  0
 31 32  1  0  0  0
 31 33  2  0  0  0
  3  4  1  0  0  0
  4  5  2  0  0  0
  5  6  1  0  0  0
  6  7  1  0  0  0
 18 13  2  0  0  0
  6  1  2  0  0  0
 33 27  1  0  0  0
 11 12  1  0  0  0
 25 26  1  0  0  0
  7  8  1  0  0  0
M  END
> <minimizedAffinity>
-9.76404

$$$$
OCNT-2313024


 33 38  0  0  0  0  0  0  0  0999 V2000
   -2.8350   26.6617    4.9371 C   0  0  0  0  0  0  0  0  0  0  0  0
   -2.8230   27.7200    5.7200 N   0  0  0  0  0  0  0  0  0  0  0  0
   -1.6174   27.6157    6.3751 C   0  0  0  0  0  0  0  0  0  0  0  0
   -0.8957   26.5430    6.0134 N   0  0  0  0  0  0  0  0  0  0  0  0
   -1.6986   25.9095    5.0700 O   0  0  0  0  0  0  0  0  0  0  0  0
   -3.1954   24.0093    3.0542 C   0  0  0  0  0  0  0  0  0  0  0  0
   -4.1441   25.1319    3.2447 C   0  0  0  0  0  0  0  0  0  0  0  0
   -4.0047   26.2999    3.9717 C   0  0  0  0  0  0  0  0  0  0  0  0
   -5.0330   27.1470    3.6941 N   0  0  0  0  0  0  0  0  0  0  0  0
   -5.8209   26.5512    2.8140 N   0  0  0  0  0  0  0  0  0  0  0  0
   -5.3855   25.2720    2.6299 N   0  0  0  0  0  0  0  0  0  0  0  0
   -6.1694   24.3816    1.8471 C   0  0  0  0  0  0  0  0  0  0  0  0
   -6.4101   24.7475    0.5049 C   0  0  0  0  0  0  0  0  0  0  0  0
   -7.1441   23.9173   -0.3318 C   0  0  0  0  0  0  0  0  0  0  0  0
   -7.6628   22.7321    0.1707 C   0  0  0  0  0  0  0  0  0  0  0  0
   -7.4734   22.3850    1.5178 C   0  0  0  0  0  0  0  0  0  0  0  0
   -8.0514   21.2118    2.0219 C   0  0  0  0  0  0  0  0  0  0  0  0
   -7.9166   20.8888    3.3634 C   0  0  0  0  0  0  0  0  0  0  0  0
   -7.2059   21.7582    4.1592 C   0  0  0  0  0  0  0  0  0  0  0  0
   -6.6244   22.8900    3.7022 N   0  0  0  0  0  0  0  0  0  0  0  0
   -6.7263   23.2134    2.3919 C   0  0  0  0  0  0  0  0  0  0  0  0
   -1.1818   28.5978    7.3633 C   0  0  0  0  0  0  0  0  0  0  0  0
    0.1793   28.7359    7.6676 C   0  0  0  0  0  0  0  0  0  0  0  0
    0.6065   29.6741    8.6089 C   0  0  0  0  0  0  0  0  0  0  0  0
   -0.3219   30.4858    9.2597 C   0  0  0  0  0  0  0  0  0  0  0  0
   -1.6896   30.3660    8.9787 C   0  0  0  0  0  0  0  0  0  0  0  0
   -2.1075   29.4208    8.0251 C   0  0  0  0  0  0  0  0  0  0  0  0
   -2.6964   31.2479    9.6722 C   0  0  0  0  0  0  0  0  0  0  0  0
   -4.0360   31.0399    9.1534 N   0  0  0  0  0  0  0  0  0  0  0  0
   -4.9453   30.1177    9.5940 C   0  0  0  0  0  0  0  0  0  0  0  0
   -6.0726   30.3445    8.8391 C   0  0  0  0  0  0  0  0  0  0  0  0
   -5.8745   31.3843    7.9674 N   0  0  0  0  0  0  0  0  0  0  0  0
   -4.6393   31.7810    8.1770 C   0  0  0  0  0  0  0  0  0  0  0  0
  6  7  1  0  0  0
  7  8  2  0  0  0
  8  1  1  0  0  0
  1  2  2  0  0  0
  2  3  1  0  0  0
  3 22  1  0  0  0
 22 23  1  0  0  0
 23 24  2  0  0  0
 24 25  1  0  0  0
 25 26  2  0  0  0
 26 28  1  0  0  0
 28 29  1  0  0  0
 29 30  1  0  0  0
 30 31  2  0  0  0
 31 32  1  0  0  0
 32 33  2  0  0  0
 26 27  1  0  0  0
  3  4  2  0  0  0
  4  5  1  0  0  0
  8  9  1  0  0  0
  9 10  2  0  0  0
 10 11  1  0  0  0
 11 12  1  0  0  0
 12 13  1  0  0  0
 13 14  2  0  0  0
 14 15  1  0  0  0
 15 16  2  0  0  0
 16 17  1  0  0  0
 17 18  2  0  0  0
 18 19  1  0  0  0
 19 20  2  0  0  0
 20 21  1  0  0  0
 11  7  1  0  0  0
 21 12  2  0  0  0
  5  1  1  0  0  0
 21 16  1  0  0  0
 27 22  2  0  0  0
 33 29  1  0  0  0
M  END
> <minimizedAffinity>
-11.11816

$$$$
OCNT-2313032


 26 28  0  0  0  0  0  0  0  0999 V2000
   -6.4475   30.1746    6.3984 N   0  0  0  0  0  0  0  0  0  0  0  0
   -6.6234   31.1193    6.0665 H   0  0  0  0  0  0  0  0  0  0  0  0
   -5.6797   26.2896    2.2354 C   0  0  0  0  0  0  0  0  0  0  0  0
   -5.8789   27.2930    3.3361 C   0  0  0  0  0  0  0  0  0  0  0  0
   -5.9397   28.6556    3.0191 C   0  0  0  0  0  0  0  0  0  0  0  0
   -6.1290   29.6216    4.0159 C   0  0  0  0  0  0  0  0  0  0  0  0
   -6.3057   29.2615    5.3537 C   0  0  0  0  0  0  0  0  0  0  0  0
   -6.2127   27.8998    5.6721 C   0  0  0  0  0  0  0  0  0  0  0  0
   -6.0100   26.9199    4.6830 C   0  0  0  0  0  0  0  0  0  0  0  0
   -5.9528   25.4925    5.0988 C   0  0  0  0  0  0  0  0  0  0  0  0
   -4.7168   25.0102    5.4339 N   0  0  0  0  0  0  0  0  0  0  0  0
   -6.9405   24.7723    5.1235 O   0  0  0  0  0  0  0  0  0  0  0  0
   -3.8709   25.5037    5.1837 H   0  0  0  0  0  0  0  0  0  0  0  0
   -4.6533   24.0120    5.5877 H   0  0  0  0  0  0  0  0  0  0  0  0
   -5.5531   30.1776    7.5584 C   0  0  0  0  0  0  0  0  0  0  0  0
   -4.8666   31.4603    7.9070 C   0  0  0  0  0  0  0  0  0  0  0  0
   -5.4414   32.6818    8.2105 C   0  0  0  0  0  0  0  0  0  0  0  0
   -4.4213   33.5348    8.5001 N   0  0  0  0  0  0  0  0  0  0  0  0
   -3.2130   32.9629    8.4269 N   0  0  0  0  0  0  0  0  0  0  0  0
   -3.4697   31.7083    8.0367 C   0  0  0  0  0  0  0  0  0  0  0  0
   -4.4766   34.5132    8.7648 H   0  0  0  0  0  0  0  0  0  0  0  0
   -2.3840   30.7394    7.8335 C   0  0  0  0  0  0  0  0  0  0  0  0
   -2.1214   29.6849    8.6843 C   0  0  0  0  0  0  0  0  0  0  0  0
   -0.7926   28.7425    8.1628 S   0  0  0  0  0  0  0  0  0  0  0  0
   -0.5294   29.7644    6.8166 C   0  0  0  0  0  0  0  0  0  0  0  0
   -1.4423   30.7968    6.7621 C   0  0  0  0  0  0  0  0  0  0  0  0
  3  4  1  0  0  0
  4  5  1  0  0  0
  5  6  2  0  0  0
  6  7  1  0  0  0
  7  1  1  0  0  0
  1 15  1  0  0  0
 15 16  1  0  0  0
 16 17  2  0  0  0
 17 18  1  0  0  0
 18 19  1  0  0  0
 19 20  2  0  0  0
 20 22  1  0  0  0
 22 23  2  0  0  0
 23 24  1  0  0  0
 24 25  1  0  0  0
 25 26  2  0  0  0
  7  8  2  0  0  0
  8  9  1  0  0  0
  9 10  1  0  0  0
 10 11  1  0  0  0
 10 12  2  0  0  0
  9  4  2  0  0  0
 20 16  1  0  0  0
 26 22  1  0  0  0
  1  2  1  0  0  0
 18 21  1  0  0  0
 11 13  1  0  0  0
 11 14  1  0  0  0
M  END
> <minimizedAffinity>
-8.54501

$$$$
OCNT-2313035


 21 23  0  0  0  0  0  0  0  0999 V2000
   -5.3039   29.4228    5.6129 N   0  0  0  0  0  0  0  0  0  0  0  0
   -4.9730   27.9961    5.8343 C   0  0  0  0  0  0  0  0  0  0  0  0
   -5.9224   27.0547    5.0558 C   0  0  0  0  0  0  0  0  0  0  0  0
   -6.0514   27.3214    3.6057 N   0  0  0  0  0  0  0  0  0  0  0  0
   -5.8893   28.7695    3.3117 C   0  0  0  0  0  0  0  0  0  0  0  0
   -6.2416   29.6854    4.5055 C   0  0  0  0  0  0  0  0  0  0  0  0
   -3.0121   31.0490    6.3575 C   0  0  0  0  0  0  0  0  0  0  0  0
   -4.2642   30.9763    7.1971 C   0  0  0  0  0  0  0  0  0  0  0  0
   -4.3371   31.6765    8.4200 C   0  0  0  0  0  0  0  0  0  0  0  0
   -2.9969   32.5793    9.0425 Cl  0  0  0  0  0  0  0  0  0  0  0  0
   -5.5009   31.6633    9.1895 C   0  0  0  0  0  0  0  0  0  0  0  0
   -6.6059   30.9434    8.7579 C   0  0  0  0  0  0  0  0  0  0  0  0
   -6.5386   30.2197    7.5668 C   0  0  0  0  0  0  0  0  0  0  0  0
   -5.3757   30.2014    6.7746 C   0  0  0  0  0  0  0  0  0  0  0  0
   -5.0998   26.5058    2.8207 C   0  0  0  0  0  0  0  0  0  0  0  0
   -5.7811   25.3954    2.0849 C   0  0  0  0  0  0  0  0  0  0  0  0
   -6.0675   25.4279    0.7705 N   0  0  0  0  0  0  0  0  0  0  0  0
   -6.6475   24.2206    0.6364 N   0  0  0  0  0  0  0  0  0  0  0  0
   -7.1346   23.7389   -0.6268 C   0  0  0  0  0  0  0  0  0  0  0  0
   -6.6896   23.4643    1.7440 N   0  0  0  0  0  0  0  0  0  0  0  0
   -6.1398   24.2163    2.6877 N   0  0  0  0  0  0  0  0  0  0  0  0
  7  8  1  0  0  0
  8  9  2  0  0  0
  9 10  1  0  0  0
  9 11  1  0  0  0
 11 12  2  0  0  0
 12 13  1  0  0  0
 13 14  2  0  0  0
 14  1  1  0  0  0
  1  2  1  0  0  0
  2  3  1  0  0  0
  3  4  1  0  0  0
  4 15  1  0  0  0
 15 16  1  0  0  0
 16 17  2  0  0  0
 17 18  1  0  0  0
 18 19  1  0  0  0
 18 20  1  0  0  0
 20 21  2  0  0  0
  4  5  1  0  0  0
  5  6  1  0  0  0
 14  8  1  0  0  0
  6  1  1  0  0  0
 21 16  1  0  0  0
M  END
> <minimizedAffinity>
-7.96344

$$$$
OCNT-2313041


 23 25  0  0  0  0  0  0  0  0999 V2000
   -3.6680   27.4663    5.6807 N   0  0  0  0  0  0  0  0  0  0  0  0
   -5.1103   27.4643    5.4080 C   0  0  0  0  0  0  0  0  0  0  0  0
   -5.5869   26.1143    4.8424 C   0  0  0  0  0  0  0  0  0  0  0  0
   -4.8737   25.7363    3.5767 N   0  0  0  0  0  0  0  0  0  0  0  0
   -3.4625   26.2533    3.5324 C   0  0  0  0  0  0  0  0  0  0  0  0
   -2.8720   26.4817    4.9317 C   0  0  0  0  0  0  0  0  0  0  0  0
   -3.2407   31.9290    7.9838 C   0  0  0  0  0  0  0  0  0  0  0  0
   -2.8928   30.5393    7.7580 N   0  0  0  0  0  0  0  0  0  0  0  0
   -1.8672   29.9712    8.4729 C   0  0  0  0  0  0  0  0  0  0  0  0
   -1.4937   28.7092    8.2473 C   0  0  0  0  0  0  0  0  0  0  0  0
   -2.0674   27.8690    7.3357 N   0  0  0  0  0  0  0  0  0  0  0  0
   -3.0560   28.3224    6.6008 C   0  0  0  0  0  0  0  0  0  0  0  0
   -3.5314   29.8187    6.7508 C   0  0  0  0  0  0  0  0  0  0  0  0
   -4.3886   30.2840    6.0088 O   0  0  0  0  0  0  0  0  0  0  0  0
   -4.9995   24.0883    3.1448 S   0  0  0  0  0  0  0  0  0  0  0  0
   -5.7829   23.4365    4.1735 O   0  0  0  0  0  0  0  0  0  0  0  0
   -3.6768   23.6127    2.8003 O   0  0  0  0  0  0  0  0  0  0  0  0
   -5.9515   24.1433    1.6495 C   0  0  0  0  0  0  0  0  0  0  0  0
   -6.8057   23.0871    1.3214 C   0  0  0  0  0  0  0  0  0  0  0  0
   -7.5466   23.1491    0.1412 C   0  0  0  0  0  0  0  0  0  0  0  0
   -7.4273   24.2560   -0.7024 C   0  0  0  0  0  0  0  0  0  0  0  0
   -6.5651   25.3037   -0.3733 C   0  0  0  0  0  0  0  0  0  0  0  0
   -5.8208   25.2498    0.8045 C   0  0  0  0  0  0  0  0  0  0  0  0
  7  8  1  0  0  0
  8  9  1  0  0  0
  9 10  2  0  0  0
 10 11  1  0  0  0
 11 12  2  0  0  0
 12  1  1  0  0  0
  1  2  1  0  0  0
  2  3  1  0  0  0
  3  4  1  0  0  0
  4 15  1  0  0  0
 15 16  2  0  0  0
 15 17  2  0  0  0
 15 18  1  0  0  0
 18 19  2  0  0  0
 19 20  1  0  0  0
 20 21  2  0  0  0
 21 22  1  0  0  0
 22 23  2  0  0  0
  4  5  1  0  0  0
  5  6  1  0  0  0
 12 13  1  0  0  0
 13 14  2  0  0  0
 13  8  1  0  0  0
  6  1  1  0  0  0
 23 18  1  0  0  0
M  END
> <minimizedAffinity>
-8.76071

$$$$
OCNT-2313046


 26 28  0  0  0  0  0  0  0  0999 V2000
   -5.4573   24.8328    3.7905 C   0  0  0  0  0  0  0  0  0  0  0  0
   -4.2737   24.7256    4.3674 N   0  0  0  0  0  0  0  0  0  0  0  0
   -3.3921   25.6891    3.8955 C   0  0  0  0  0  0  0  0  0  0  0  0
   -3.9228   26.5105    2.9199 C   0  0  0  0  0  0  0  0  0  0  0  0
   -5.5542   26.0987    2.6225 S   0  0  0  0  0  0  0  0  0  0  0  0
   -8.7968   22.2246    4.6138 C   0  0  0  0  0  0  0  0  0  0  0  0
   -8.0505   22.1040    3.4385 C   0  0  0  0  0  0  0  0  0  0  0  0
   -6.9744   22.9629    3.1921 C   0  0  0  0  0  0  0  0  0  0  0  0
   -6.6077   23.9614    4.1109 C   0  0  0  0  0  0  0  0  0  0  0  0
   -7.3630   24.0696    5.2893 C   0  0  0  0  0  0  0  0  0  0  0  0
   -8.4414   23.2110    5.5391 C   0  0  0  0  0  0  0  0  0  0  0  0
  -10.9151   21.8687    5.9075 C   0  0  0  0  0  0  0  0  0  0  0  0
   -9.9437   21.2873    4.8919 C   0  0  0  0  0  0  0  0  0  0  0  0
   -1.9888   25.7340    4.4353 C   0  0  0  0  0  0  0  0  0  0  0  0
   -1.7624   26.7921    5.4328 N   0  0  0  0  0  0  0  0  0  0  0  0
   -2.1979   26.4677    6.7830 C   0  0  0  0  0  0  0  0  0  0  0  0
   -2.3294   27.7556    7.6036 C   0  0  0  0  0  0  0  0  0  0  0  0
   -1.2279   28.7815    7.2840 C   0  0  0  0  0  0  0  0  0  0  0  0
   -0.0126   28.1044    6.6618 C   0  0  0  0  0  0  0  0  0  0  0  0
   -0.4062   27.3547    5.3807 C   0  0  0  0  0  0  0  0  0  0  0  0
   -0.9336   29.6686    8.4537 N   0  0  0  0  0  0  0  0  0  0  0  0
    0.4736   29.6310    8.9055 C   0  0  0  0  0  0  0  0  0  0  0  0
   -1.8111   31.0586    8.8478 S   0  0  0  0  0  0  0  0  0  0  0  0
   -2.3288   31.6689    7.2579 C   0  0  0  0  0  0  0  0  0  0  0  0
   -2.9994   30.6899    9.5841 O   0  0  0  0  0  0  0  0  0  0  0  0
   -0.8830   32.0280    9.3941 O   0  0  0  0  0  0  0  0  0  0  0  0
 12 13  1  0  0  0
 13  6  1  0  0  0
  6  7  1  0  0  0
  7  8  2  0  0  0
  8  9  1  0  0  0
  9  1  1  0  0  0
  1  2  2  0  0  0
  2  3  1  0  0  0
  3 14  1  0  0  0
 14 15  1  0  0  0
 15 16  1  0  0  0
 16 17  1  0  0  0
 17 18  1  0  0  0
 18 21  1  0  0  0
 21 22  1  0  0  0
 21 23  1  0  0  0
 23 24  1  0  0  0
 23 25  2  0  0  0
 23 26  2  0  0  0
 18 19  1  0  0  0
 19 20  1  0  0  0
  3  4  2  0  0  0
  4  5  1  0  0  0
  9 10  2  0  0  0
 10 11  1  0  0  0
 11  6  2  0  0  0
  5  1  1  0  0  0
 20 15  1  0  0  0
M  END
> <minimizedAffinity>
-8.09235

$$$$
OCNT-2313053


 30 33  0  0  0  0  0  0  0  0999 V2000
   -3.6168   26.4388    4.3494 C   0  0  0  0  0  0  0  0  0  0  0  0
   -3.2311   25.6518    3.2770 C   0  0  0  0  0  0  0  0  0  0  0  0
   -4.1943   25.7929    2.3221 N   0  0  0  0  0  0  0  0  0  0  0  0
   -5.2227   26.5624    2.7182 N   0  0  0  0  0  0  0  0  0  0  0  0
   -4.8714   27.0023    3.9390 C   0  0  0  0  0  0  0  0  0  0  0  0
   -5.7592   27.8982    4.6705 C   0  0  0  0  0  0  0  0  0  0  0  0
   -6.4832   27.4431    5.7802 C   0  0  0  0  0  0  0  0  0  0  0  0
   -7.3322   28.3160    6.4593 C   0  0  0  0  0  0  0  0  0  0  0  0
   -7.4353   29.6227    5.9985 C   0  0  0  0  0  0  0  0  0  0  0  0
   -6.7611   30.1001    4.9260 N   0  0  0  0  0  0  0  0  0  0  0  0
   -5.9451   29.2241    4.2854 C   0  0  0  0  0  0  0  0  0  0  0  0
   -2.9137   26.5744    5.6605 C   0  0  0  0  0  0  0  0  0  0  0  0
   -2.4390   27.9450    5.8853 N   0  0  0  0  0  0  0  0  0  0  0  0
   -1.4469   27.9259    6.1191 H   0  0  0  0  0  0  0  0  0  0  0  0
   -3.1747   28.6472    6.9563 C   0  0  0  0  0  0  0  0  0  0  0  0
   -3.0333   30.8403    5.9677 O   0  0  0  0  0  0  0  0  0  0  0  0
   -2.6341   30.0994    7.1417 C   0  0  0  0  0  0  0  0  0  0  0  0
   -1.0908   30.1799    7.2285 C   0  0  0  0  0  0  0  0  0  0  0  0
   -0.6000   30.3712    8.6625 C   0  0  0  0  0  0  0  0  0  0  0  0
   -1.1316   31.6722    9.2648 C   0  0  0  0  0  0  0  0  0  0  0  0
   -2.5703   31.9915    8.8410 C   0  0  0  0  0  0  0  0  0  0  0  0
   -3.3237   30.7513    8.3589 C   0  0  0  0  0  0  0  0  0  0  0  0
   -2.9038   30.2049    5.2304 H   0  0  0  0  0  0  0  0  0  0  0  0
   -4.2152   25.1659    1.0050 C   0  0  0  0  0  0  0  0  0  0  0  0
   -5.4803   24.3691    0.7897 C   0  0  0  0  0  0  0  0  0  0  0  0
   -6.4688   24.8251   -0.0945 C   0  0  0  0  0  0  0  0  0  0  0  0
   -7.6373   24.0856   -0.2919 C   0  0  0  0  0  0  0  0  0  0  0  0
   -7.8263   22.8801    0.3842 C   0  0  0  0  0  0  0  0  0  0  0  0
   -6.8505   22.4135    1.2621 C   0  0  0  0  0  0  0  0  0  0  0  0
   -5.6837   23.1540    1.4646 C   0  0  0  0  0  0  0  0  0  0  0  0
 16 17  1  0  0  0
 17 15  1  0  0  0
 15 13  1  0  0  0
 13 12  1  0  0  0
 12  1  1  0  0  0
  1  2  2  0  0  0
  2  3  1  0  0  0
  3 24  1  0  0  0
 24 25  1  0  0  0
 25 26  2  0  0  0
 26 27  1  0  0  0
 27 28  2  0  0  0
 28 29  1  0  0  0
 29 30  2  0  0  0
  3  4  1  0  0  0
  4  5  2  0  0  0
  5  6  1  0  0  0
  6  7  1  0  0  0
  7  8  2  0  0  0
  8  9  1  0  0  0
  9 10  2  0  0  0
 10 11  1  0  0  0
 17 18  1  0  0  0
 18 19  1  0  0  0
 19 20  1  0  0  0
 20 21  1  0  0  0
 21 22  1  0  0  0
 22 17  1  0  0  0
  5  1  1  0  0  0
 11  6  2  0  0  0
 30 25  1  0  0  0
 16 23  1  0  0  0
 13 14  1  0  0  0
M  END
> <minimizedAffinity>
-9.89682

$$$$
OCNT-2313058


 24 26  0  0  0  0  0  0  0  0999 V2000
    0.5552   29.3384    6.1768 O   0  0  0  0  0  0  0  0  0  0  0  0
    0.0791   28.8588    7.1985 C   0  0  0  0  0  0  0  0  0  0  0  0
   -0.8707   27.8512    7.2719 N   0  0  0  0  0  0  0  0  0  0  0  0
   -1.1616   27.5714    8.2002 H   0  0  0  0  0  0  0  0  0  0  0  0
   -1.4819   27.1670    6.2016 C   0  0  0  0  0  0  0  0  0  0  0  0
   -0.7991   26.3519    5.3013 C   0  0  0  0  0  0  0  0  0  0  0  0
   -1.4803   25.7039    4.2603 C   0  0  0  0  0  0  0  0  0  0  0  0
   -2.8631   25.8619    4.1031 C   0  0  0  0  0  0  0  0  0  0  0  0
   -3.5508   26.6807    5.0075 C   0  0  0  0  0  0  0  0  0  0  0  0
   -2.8628   27.3248    6.0451 C   0  0  0  0  0  0  0  0  0  0  0  0
   -3.5534   25.2023    3.0442 N   0  0  0  0  0  0  0  0  0  0  0  0
   -3.8897   23.8665    2.9646 C   0  0  0  0  0  0  0  0  0  0  0  0
   -4.5421   23.7033    1.7657 C   0  0  0  0  0  0  0  0  0  0  0  0
   -4.6250   24.8875    1.0950 N   0  0  0  0  0  0  0  0  0  0  0  0
   -4.0299   25.7623    1.8764 C   0  0  0  0  0  0  0  0  0  0  0  0
    0.4837   29.3389    8.5864 C   0  0  0  0  0  0  0  0  0  0  0  0
   -0.2322   30.6298    8.9876 C   0  0  0  0  0  0  0  0  0  0  0  0
   -1.6952   30.6920    8.5134 C   0  0  0  0  0  0  0  0  0  0  0  0
   -2.6129   31.0760    9.6863 C   0  0  0  0  0  0  0  0  0  0  0  0
   -4.0631   31.2378    9.2345 C   0  0  0  0  0  0  0  0  0  0  0  0
   -4.1873   32.2182    8.1549 N   0  0  0  0  0  0  0  0  0  0  0  0
   -3.3817   31.8258    6.9991 C   0  0  0  0  0  0  0  0  0  0  0  0
   -1.9014   31.6799    7.3547 C   0  0  0  0  0  0  0  0  0  0  0  0
   -3.8633   33.1246    8.4938 H   0  0  0  0  0  0  0  0  0  0  0  0
  1  2  2  0  0  0
  2 16  1  0  0  0
 16 17  1  0  0  0
 17 18  1  0  0  0
 18 19  1  0  0  0
 19 20  1  0  0  0
 20 21  1  0  0  0
 21 22  1  0  0  0
 22 23  1  0  0  0
  2  3  1  0  0  0
  3  5  1  0  0  0
  5  6  1  0  0  0
  6  7  2  0  0  0
  7  8  1  0  0  0
  8 11  1  0  0  0
 11 12  1  0  0  0
 12 13  2  0  0  0
 13 14  1  0  0  0
 14 15  2  0  0  0
  8  9  2  0  0  0
  9 10  1  0  0  0
 23 18  1  0  0  0
 10  5  2  0  0  0
 15 11  1  0  0  0
 21 24  1  0  0  0
  3  4  1  0  0  0
M  END
> <minimizedAffinity>
-8.27691

$$$$
OCNT-2313062


 24 26  0  0  0  0  0  0  0  0999 V2000
   -1.3514   28.3147    8.4848 N   0  0  0  0  0  0  0  0  0  0  0  0
   -2.0398   27.7066    8.9430 H   0  0  0  0  0  0  0  0  0  0  0  0
   -1.7279   29.6607    8.6888 C   0  0  0  0  0  0  0  0  0  0  0  0
   -0.7904   30.6710    8.9082 C   0  0  0  0  0  0  0  0  0  0  0  0
   -1.2307   31.9614    9.1358 C   0  0  0  0  0  0  0  0  0  0  0  0
   -2.5267   32.3195    9.1839 N   0  0  0  0  0  0  0  0  0  0  0  0
   -3.4454   31.3580    9.0223 C   0  0  0  0  0  0  0  0  0  0  0  0
   -4.7788   31.7256    9.1031 C   0  0  0  0  0  0  0  0  0  0  0  0
   -5.7909   30.7854    8.9677 C   0  0  0  0  0  0  0  0  0  0  0  0
   -7.0700   31.1735    9.0546 F   0  0  0  0  0  0  0  0  0  0  0  0
   -5.4975   29.4512    8.7520 C   0  0  0  0  0  0  0  0  0  0  0  0
   -4.1634   29.0594    8.6636 C   0  0  0  0  0  0  0  0  0  0  0  0
   -3.1096   30.0010    8.7852 C   0  0  0  0  0  0  0  0  0  0  0  0
   -1.1007   27.8120    7.1327 C   0  0  0  0  0  0  0  0  0  0  0  0
   -2.0104   26.6217    6.8266 C   0  0  0  0  0  0  0  0  0  0  0  0
   -5.1196   24.5753    3.1020 C   0  0  0  0  0  0  0  0  0  0  0  0
   -4.7906   26.0332    2.7666 C   0  0  0  0  0  0  0  0  0  0  0  0
   -5.8421   26.9994    3.3250 C   0  0  0  0  0  0  0  0  0  0  0  0
   -5.7529   27.1224    4.8426 C   0  0  0  0  0  0  0  0  0  0  0  0
   -4.3399   27.4744    5.2956 C   0  0  0  0  0  0  0  0  0  0  0  0
   -3.3313   26.5814    4.7209 N   0  0  0  0  0  0  0  0  0  0  0  0
   -2.1061   26.3222    5.3407 C   0  0  0  0  0  0  0  0  0  0  0  0
   -1.1404   25.8707    4.7219 O   0  0  0  0  0  0  0  0  0  0  0  0
   -3.3906   26.4103    3.2675 C   0  0  0  0  0  0  0  0  0  0  0  0
 16 17  1  0  0  0
 17 18  1  0  0  0
 18 19  1  0  0  0
 19 20  1  0  0  0
 20 21  1  0  0  0
 21 22  1  0  0  0
 22 23  2  0  0  0
 22 15  1  0  0  0
 15 14  1  0  0  0
 14  1  1  0  0  0
  1  3  1  0  0  0
  3  4  2  0  0  0
  4  5  1  0  0  0
  5  6  2  0  0  0
  6  7  1  0  0  0
  7  8  2  0  0  0
  8  9  1  0  0  0
  9 10  1  0  0  0
  9 11  2  0  0  0
 11 12  1  0  0  0
 12 13  2  0  0  0
 21 24  1  0  0  0
 24 17  1  0  0  0
 13  3  1  0  0  0
 13  7  1  0  0  0
  1  2  1  0  0  0
M  END
> <minimizedAffinity>
-9.12216

$$$$
OCNT-2313080


 23 25  0  0  0  0  0  0  0  0999 V2000
   -2.7830   27.1280    5.7698 C   0  0  0  0  0  0  0  0  0  0  0  0
   -1.4998   26.6512    5.5883 C   0  0  0  0  0  0  0  0  0  0  0  0
   -0.4201   27.1437    6.2313 N   0  0  0  0  0  0  0  0  0  0  0  0
   -0.6048   28.1682    7.0732 C   0  0  0  0  0  0  0  0  0  0  0  0
    0.5199   28.6579    7.7262 C   0  0  0  0  0  0  0  0  0  0  0  0
    0.4479   29.7289    8.6153 C   0  0  0  0  0  0  0  0  0  0  0  0
   -0.7791   30.3214    8.8500 C   0  0  0  0  0  0  0  0  0  0  0  0
   -0.8710   31.3522    9.7030 F   0  0  0  0  0  0  0  0  0  0  0  0
   -1.9247   29.8542    8.2172 C   0  0  0  0  0  0  0  0  0  0  0  0
   -1.8742   28.7615    7.3160 C   0  0  0  0  0  0  0  0  0  0  0  0
   -3.0060   28.2155    6.6356 C   0  0  0  0  0  0  0  0  0  0  0  0
   -4.3140   28.7074    6.7656 N   0  0  0  0  0  0  0  0  0  0  0  0
   -4.6938   29.8400    5.9063 C   0  0  0  0  0  0  0  0  0  0  0  0
   -6.2324   30.0201    5.9132 C   0  0  0  0  0  0  0  0  0  0  0  0
   -6.8595   30.0922    7.2541 N   0  0  0  0  0  0  0  0  0  0  0  0
   -6.5611   31.3570    7.9214 C   0  0  0  0  0  0  0  0  0  0  0  0
   -6.4160   28.9284    8.0566 C   0  0  0  0  0  0  0  0  0  0  0  0
   -4.8835   28.7147    8.1224 C   0  0  0  0  0  0  0  0  0  0  0  0
   -3.8464   26.4728    4.9986 C   0  0  0  0  0  0  0  0  0  0  0  0
   -4.6616   25.7143    5.4965 O   0  0  0  0  0  0  0  0  0  0  0  0
   -3.8264   26.9232    3.7188 O   0  0  0  0  0  0  0  0  0  0  0  0
   -5.9280   27.8352    3.0483 C   0  0  0  0  0  0  0  0  0  0  0  0
   -5.0138   26.6266    2.9769 C   0  0  0  0  0  0  0  0  0  0  0  0
 22 23  1  0  0  0
 23 21  1  0  0  0
 21 19  1  0  0  0
 19 20  2  0  0  0
 19  1  1  0  0  0
  1  2  1  0  0  0
  2  3  2  0  0  0
  3  4  1  0  0  0
  4  5  2  0  0  0
  5  6  1  0  0  0
  6  7  2  0  0  0
  7  8  1  0  0  0
  7  9  1  0  0  0
  9 10  2  0  0  0
 10 11  1  0  0  0
 11 12  1  0  0  0
 12 13  1  0  0  0
 13 14  1  0  0  0
 14 15  1  0  0  0
 15 16  1  0  0  0
 15 17  1  0  0  0
 17 18  1  0  0  0
 11  1  2  0  0  0
 18 12  1  0  0  0
 10  4  1  0  0  0
M  END
> <minimizedAffinity>
-7.67011

$$$$
OCNT-2313085


 23 25  0  0  0  0  0  0  0  0999 V2000
   -3.2575   26.6395    4.8533 N   0  0  0  0  0  0  0  0  0  0  0  0
   -4.6817   26.2501    4.9343 C   0  0  0  0  0  0  0  0  0  0  0  0
   -5.0525   24.8950    4.2857 C   0  0  0  0  0  0  0  0  0  0  0  0
   -4.6235   24.8324    2.8782 N   0  0  0  0  0  0  0  0  0  0  0  0
   -3.5781   25.7894    2.4752 C   0  0  0  0  0  0  0  0  0  0  0  0
   -2.6133   26.0536    3.6562 C   0  0  0  0  0  0  0  0  0  0  0  0
   -5.3749   24.1413    1.9334 C   0  0  0  0  0  0  0  0  0  0  0  0
   -6.1843   24.8361    1.0144 C   0  0  0  0  0  0  0  0  0  0  0  0
   -6.9656   24.1755    0.0558 C   0  0  0  0  0  0  0  0  0  0  0  0
   -6.9651   22.7876   -0.0112 C   0  0  0  0  0  0  0  0  0  0  0  0
   -6.1854   22.0656    0.8837 C   0  0  0  0  0  0  0  0  0  0  0  0
   -5.4109   22.7343    1.8361 C   0  0  0  0  0  0  0  0  0  0  0  0
   -4.6668   21.9688    2.6516 F   0  0  0  0  0  0  0  0  0  0  0  0
   -2.5300   26.3395    6.1005 C   0  0  0  0  0  0  0  0  0  0  0  0
   -0.1175   26.7387    6.3645 O   0  0  0  0  0  0  0  0  0  0  0  0
   -1.4064   27.3530    6.4567 C   0  0  0  0  0  0  0  0  0  0  0  0
   -0.1376   25.9240    6.8952 H   0  0  0  0  0  0  0  0  0  0  0  0
   -1.5956   27.8862    7.8822 C   0  0  0  0  0  0  0  0  0  0  0  0
   -1.6065   29.4124    7.9694 C   0  0  0  0  0  0  0  0  0  0  0  0
   -0.4354   30.0448    8.7034 C   0  0  0  0  0  0  0  0  0  0  0  0
   -1.0362   31.3459    9.1734 C   0  0  0  0  0  0  0  0  0  0  0  0
   -2.4420   30.9270    9.5422 C   0  0  0  0  0  0  0  0  0  0  0  0
   -2.7866   29.8223    8.6935 O   0  0  0  0  0  0  0  0  0  0  0  0
 15 16  1  0  0  0
 16 18  1  0  0  0
 18 19  1  0  0  0
 19 20  1  0  0  0
 20 21  1  0  0  0
 21 22  1  0  0  0
 22 23  1  0  0  0
 16 14  1  0  0  0
 14  1  1  0  0  0
  1  2  1  0  0  0
  2  3  1  0  0  0
  3  4  1  0  0  0
  4  7  1  0  0  0
  7  8  2  0  0  0
  8  9  1  0  0  0
  9 10  2  0  0  0
 10 11  1  0  0  0
 11 12  2  0  0  0
 12 13  1  0  0  0
  4  5  1  0  0  0
  5  6  1  0  0  0
 23 19  1  0  0  0
  6  1  1  0  0  0
 12  7  1  0  0  0
 15 17  1  0  0  0
M  END
> <minimizedAffinity>
-8.76426

$$$$
OCNT-2313088


 26 29  0  0  0  0  0  0  0  0999 V2000
   -3.7188   27.1333    5.2869 C   0  0  0  0  0  0  0  0  0  0  0  0
   -5.0900   26.8447    5.2936 C   0  0  0  0  0  0  0  0  0  0  0  0
   -5.6129   25.8204    4.4950 C   0  0  0  0  0  0  0  0  0  0  0  0
   -4.7736   25.0678    3.6698 C   0  0  0  0  0  0  0  0  0  0  0  0
   -3.4030   25.3424    3.6801 C   0  0  0  0  0  0  0  0  0  0  0  0
   -2.8799   26.3708    4.4752 C   0  0  0  0  0  0  0  0  0  0  0  0
   -5.2848   23.9833    2.8325 C   0  0  0  0  0  0  0  0  0  0  0  0
   -5.1704   22.6963    3.1148 N   0  0  0  0  0  0  0  0  0  0  0  0
   -5.7771   22.0171    2.0915 C   0  0  0  0  0  0  0  0  0  0  0  0
   -6.2515   22.8904    1.1428 C   0  0  0  0  0  0  0  0  0  0  0  0
   -6.9314   22.6807   -0.1629 C   0  0  0  0  0  0  0  0  0  0  0  0
   -7.5389   23.9777   -0.7023 C   0  0  0  0  0  0  0  0  0  0  0  0
   -6.5570   25.1415   -0.5562 C   0  0  0  0  0  0  0  0  0  0  0  0
   -6.2068   25.3713    0.9141 C   0  0  0  0  0  0  0  0  0  0  0  0
   -5.9173   24.1365    1.6184 N   0  0  0  0  0  0  0  0  0  0  0  0
   -2.4991   28.0880    7.2664 C   0  0  0  0  0  0  0  0  0  0  0  0
   -2.0388   27.0399    7.7019 O   0  0  0  0  0  0  0  0  0  0  0  0
   -3.2814   28.1815    6.1266 N   0  0  0  0  0  0  0  0  0  0  0  0
   -3.5843   29.1027    5.8497 H   0  0  0  0  0  0  0  0  0  0  0  0
   -1.0025   29.8725    8.2081 N   0  0  0  0  0  0  0  0  0  0  0  0
   -1.0948   31.0713    8.8159 N   0  0  0  0  0  0  0  0  0  0  0  0
   -2.3780   31.3597    8.9477 N   0  0  0  0  0  0  0  0  0  0  0  0
   -3.0927   30.3267    8.4201 C   0  0  0  0  0  0  0  0  0  0  0  0
   -2.2459   29.3509    7.9251 C   0  0  0  0  0  0  0  0  0  0  0  0
    0.6782   29.3238    6.4868 C   0  0  0  0  0  0  0  0  0  0  0  0
    0.3126   29.3186    7.9612 C   0  0  0  0  0  0  0  0  0  0  0  0
 25 26  1  0  0  0
 26 20  1  0  0  0
 20 21  1  0  0  0
 21 22  2  0  0  0
 22 23  1  0  0  0
 23 24  2  0  0  0
 24 16  1  0  0  0
 16 17  2  0  0  0
 16 18  1  0  0  0
 18  1  1  0  0  0
  1  2  1  0  0  0
  2  3  2  0  0  0
  3  4  1  0  0  0
  4  7  1  0  0  0
  7  8  2  0  0  0
  8  9  1  0  0  0
  9 10  2  0  0  0
 10 11  1  0  0  0
 11 12  1  0  0  0
 12 13  1  0  0  0
 13 14  1  0  0  0
 14 15  1  0  0  0
  4  5  2  0  0  0
  5  6  1  0  0  0
 24 20  1  0  0  0
  6  1  2  0  0  0
 15  7  1  0  0  0
 15 10  1  0  0  0
 18 19  1  0  0  0
M  END
> <minimizedAffinity>
-9.48826

$$$$
OCNT-2313093


 24 26  0  0  0  0  0  0  0  0999 V2000
   -4.6577   34.3804    8.6355 C   0  0  0  0  0  0  0  0  0  0  0  0
   -4.4125   32.9274    8.3632 C   0  0  0  0  0  0  0  0  0  0  0  0
   -5.4709   32.0647    8.1935 C   0  0  0  0  0  0  0  0  0  0  0  0
   -5.1453   30.7525    7.9285 C   0  0  0  0  0  0  0  0  0  0  0  0
   -3.8627   30.3250    7.8371 N   0  0  0  0  0  0  0  0  0  0  0  0
   -2.8848   31.2253    8.0233 C   0  0  0  0  0  0  0  0  0  0  0  0
   -3.1296   32.5202    8.2829 N   0  0  0  0  0  0  0  0  0  0  0  0
   -1.5828   30.8101    7.9161 N   0  0  0  0  0  0  0  0  0  0  0  0
   -1.0947   30.2327    6.6748 C   0  0  0  0  0  0  0  0  0  0  0  0
   -0.0270   29.2325    7.1261 C   0  0  0  0  0  0  0  0  0  0  0  0
    0.4085   29.7557    8.4874 C   0  0  0  0  0  0  0  0  0  0  0  0
   -0.8995   30.2737    9.0786 C   0  0  0  0  0  0  0  0  0  0  0  0
   -6.2261   29.7209    7.6766 C   0  0  0  0  0  0  0  0  0  0  0  0
   -6.8813   29.9512    6.3842 N   0  0  0  0  0  0  0  0  0  0  0  0
   -7.8912   29.9519    6.5377 H   0  0  0  0  0  0  0  0  0  0  0  0
   -6.5727   29.0230    5.3805 C   0  0  0  0  0  0  0  0  0  0  0  0
   -6.2921   29.5054    4.1038 C   0  0  0  0  0  0  0  0  0  0  0  0
   -5.9516   28.6163    3.0837 C   0  0  0  0  0  0  0  0  0  0  0  0
   -5.8882   27.2562    3.3603 C   0  0  0  0  0  0  0  0  0  0  0  0
   -5.4734   26.1666    2.0936 Cl  0  0  0  0  0  0  0  0  0  0  0  0
   -6.1631   26.8494    4.6589 C   0  0  0  0  0  0  0  0  0  0  0  0
   -6.4897   27.7090    5.6649 N   0  0  0  0  0  0  0  0  0  0  0  0
   -6.1329   25.4687    5.0521 C   0  0  0  0  0  0  0  0  0  0  0  0
   -6.1029   24.3485    5.3615 N   0  0  0  0  0  0  0  0  0  0  0  0
  1  2  1  0  0  0
  2  3  2  0  0  0
  3  4  1  0  0  0
  4 13  1  0  0  0
 13 14  1  0  0  0
 14 16  1  0  0  0
 16 17  2  0  0  0
 17 18  1  0  0  0
 18 19  2  0  0  0
 19 20  1  0  0  0
 19 21  1  0  0  0
 21 23  1  0  0  0
 23 24  3  0  0  0
 21 22  2  0  0  0
  4  5  2  0  0  0
  5  6  1  0  0  0
  6  8  1  0  0  0
  8  9  1  0  0  0
  9 10  1  0  0  0
 10 11  1  0  0  0
 11 12  1  0  0  0
  6  7  2  0  0  0
  7  2  1  0  0  0
 22 16  1  0  0  0
 12  8  1  0  0  0
 14 15  1  0  0  0
M  END
> <minimizedAffinity>
-8.66346

$$$$
