OCNT-2310890


 26 28  0  0  0  0  0  0  0  0999 V2000
   -5.0681   29.5172    7.0656 O   0  0  0  0  0  0  0  0  0  0  0  0
   -4.5430   30.0953    6.1243 C   0  0  0  0  0  0  0  0  0  0  0  0
   -5.1260   30.1669    4.8755 N   0  0  0  0  0  0  0  0  0  0  0  0
   -3.3395   30.7667    6.1409 N   0  0  0  0  0  0  0  0  0  0  0  0
   -4.4942   30.2626    4.0953 H   0  0  0  0  0  0  0  0  0  0  0  0
   -3.1676   31.3627    5.3449 H   0  0  0  0  0  0  0  0  0  0  0  0
   -2.4199   30.8511    7.2070 C   0  0  0  0  0  0  0  0  0  0  0  0
   -1.2501   30.0856    7.1074 C   0  0  0  0  0  0  0  0  0  0  0  0
   -0.2979   30.1134    8.1301 C   0  0  0  0  0  0  0  0  0  0  0  0
    1.1329   29.1682    7.9855 Cl  0  0  0  0  0  0  0  0  0  0  0  0
   -0.4963   30.8943    9.2610 C   0  0  0  0  0  0  0  0  0  0  0  0
   -1.6591   31.6451    9.3566 C   0  0  0  0  0  0  0  0  0  0  0  0
   -1.8633   32.3968   10.4464 F   0  0  0  0  0  0  0  0  0  0  0  0
   -2.6197   31.6310    8.3469 C   0  0  0  0  0  0  0  0  0  0  0  0
   -6.3763   29.4878    4.6031 C   0  0  0  0  0  0  0  0  0  0  0  0
   -6.1514   28.0559    4.2108 C   0  0  0  0  0  0  0  0  0  0  0  0
   -5.7890   27.7030    2.9093 C   0  0  0  0  0  0  0  0  0  0  0  0
   -5.6070   26.3614    2.5706 C   0  0  0  0  0  0  0  0  0  0  0  0
   -5.7985   25.3947    3.5533 C   0  0  0  0  0  0  0  0  0  0  0  0
   -6.1557   25.7145    4.8257 N   0  0  0  0  0  0  0  0  0  0  0  0
   -6.3204   27.0231    5.1225 C   0  0  0  0  0  0  0  0  0  0  0  0
   -5.6265   24.0140    3.2548 N   0  0  0  0  0  0  0  0  0  0  0  0
   -5.4608   23.0061    4.1822 C   0  0  0  0  0  0  0  0  0  0  0  0
   -5.3347   21.8438    3.4620 C   0  0  0  0  0  0  0  0  0  0  0  0
   -5.4167   22.0947    2.1203 N   0  0  0  0  0  0  0  0  0  0  0  0
   -5.5893   23.3962    2.0256 C   0  0  0  0  0  0  0  0  0  0  0  0
  1  2  2  0  0  0
  2  3  1  0  0  0
  3 15  1  0  0  0
 15 16  1  0  0  0
 16 17  2  0  0  0
 17 18  1  0  0  0
 18 19  2  0  0  0
 19 22  1  0  0  0
 22 23  1  0  0  0
 23 24  2  0  0  0
 24 25  1  0  0  0
 25 26  2  0  0  0
 19 20  1  0  0  0
 20 21  2  0  0  0
  2  4  1  0  0  0
  4  7  1  0  0  0
  7  8  1  0  0  0
  8  9  2  0  0  0
  9 10  1  0  0  0
  9 11  1  0  0  0
 11 12  2  0  0  0
 12 13  1  0  0  0
 12 14  1  0  0  0
 21 16  1  0  0  0
 14  7  2  0  0  0
 26 22  1  0  0  0
  3  5  1  0  0  0
  4  6  1  0  0  0
M  END
> <minimizedAffinity>
-9.91368

$$$$
OCNT-2310909


 24 25  0  0  0  0  0  0  0  0999 V2000
   -4.9827   28.4317    6.7575 N   0  0  0  0  0  0  0  0  0  0  0  0
   -6.1667   28.1662    6.0943 C   0  0  0  0  0  0  0  0  0  0  0  0
   -7.2783   28.6061    6.3672 O   0  0  0  0  0  0  0  0  0  0  0  0
   -4.1045   28.1214    6.3365 H   0  0  0  0  0  0  0  0  0  0  0  0
   -6.0309   27.2763    4.9078 C   0  0  0  0  0  0  0  0  0  0  0  0
   -6.0680   25.8821    5.0254 C   0  0  0  0  0  0  0  0  0  0  0  0
   -5.9343   25.0808    3.8881 C   0  0  0  0  0  0  0  0  0  0  0  0
   -5.7711   25.6608    2.6201 C   0  0  0  0  0  0  0  0  0  0  0  0
   -5.7527   27.0598    2.5100 C   0  0  0  0  0  0  0  0  0  0  0  0
   -5.8882   27.8623    3.6452 C   0  0  0  0  0  0  0  0  0  0  0  0
   -5.6408   24.7911    1.3872 C   0  0  0  0  0  0  0  0  0  0  0  0
   -6.1417   23.3794    1.6484 C   0  0  0  0  0  0  0  0  0  0  0  0
   -4.3480   24.6997    0.9552 F   0  0  0  0  0  0  0  0  0  0  0  0
   -6.3384   25.2921    0.3259 F   0  0  0  0  0  0  0  0  0  0  0  0
   -4.2831   30.5040    7.8136 N   0  0  0  0  0  0  0  0  0  0  0  0
   -4.3449   31.1723    8.9875 N   0  0  0  0  0  0  0  0  0  0  0  0
   -5.0000   30.3352    9.7929 C   0  0  0  0  0  0  0  0  0  0  0  0
   -5.3610   29.1414    9.1473 C   0  0  0  0  0  0  0  0  0  0  0  0
   -4.9007   29.2718    7.8553 C   0  0  0  0  0  0  0  0  0  0  0  0
   -3.5347   31.1035    6.7212 C   0  0  0  0  0  0  0  0  0  0  0  0
   -2.0555   31.3656    7.0457 C   0  0  0  0  0  0  0  0  0  0  0  0
   -0.7383   30.5843    8.9425 C   0  0  0  0  0  0  0  0  0  0  0  0
   -1.3687   30.2024    7.6698 N   0  0  0  0  0  0  0  0  0  0  0  0
   -0.3301   29.6975    6.7576 C   0  0  0  0  0  0  0  0  0  0  0  0
 22 23  1  0  0  0
 23 24  1  0  0  0
 23 21  1  0  0  0
 21 20  1  0  0  0
 20 15  1  0  0  0
 15 16  1  0  0  0
 16 17  2  0  0  0
 17 18  1  0  0  0
 18 19  2  0  0  0
 19  1  1  0  0  0
  1  2  1  0  0  0
  2  3  2  0  0  0
  2  5  1  0  0  0
  5  6  1  0  0  0
  6  7  2  0  0  0
  7  8  1  0  0  0
  8 11  1  0  0  0
 11 12  1  0  0  0
 11 13  1  0  0  0
 11 14  1  0  0  0
  8  9  2  0  0  0
  9 10  1  0  0  0
 19 15  1  0  0  0
 10  5  2  0  0  0
  1  4  1  0  0  0
M  END
> <minimizedAffinity>
-8.28079

$$$$
OCNT-2310913


 28 31  0  0  0  0  0  0  0  0999 V2000
   -1.7891   26.4906    6.2220 O   0  0  0  0  0  0  0  0  0  0  0  0
   -2.7873   27.1984    6.2726 C   0  0  0  0  0  0  0  0  0  0  0  0
   -3.9833   26.9941    5.6165 N   0  0  0  0  0  0  0  0  0  0  0  0
   -4.6957   27.7071    5.6362 H   0  0  0  0  0  0  0  0  0  0  0  0
   -2.7250   28.4507    7.0799 C   0  0  0  0  0  0  0  0  0  0  0  0
   -1.6430   29.3349    6.9956 C   0  0  0  0  0  0  0  0  0  0  0  0
   -1.6237   30.4938    7.7776 C   0  0  0  0  0  0  0  0  0  0  0  0
   -2.6886   30.7928    8.6427 C   0  0  0  0  0  0  0  0  0  0  0  0
   -3.7786   29.9122    8.7043 C   0  0  0  0  0  0  0  0  0  0  0  0
   -3.7984   28.7525    7.9255 C   0  0  0  0  0  0  0  0  0  0  0  0
   -2.6707   32.0436    9.4877 C   0  0  0  0  0  0  0  0  0  0  0  0
   -3.6354   33.0235    9.0237 N   0  0  0  0  0  0  0  0  0  0  0  0
   -4.1296   33.1418    7.7535 C   0  0  0  0  0  0  0  0  0  0  0  0
   -5.0379   34.1720    7.8230 C   0  0  0  0  0  0  0  0  0  0  0  0
   -5.1144   34.6689    9.0985 N   0  0  0  0  0  0  0  0  0  0  0  0
   -4.2629   33.9556    9.8000 C   0  0  0  0  0  0  0  0  0  0  0  0
   -4.2553   25.8868    4.8484 C   0  0  0  0  0  0  0  0  0  0  0  0
   -3.8001   25.6979    3.5657 C   0  0  0  0  0  0  0  0  0  0  0  0
   -4.3366   24.4944    3.2059 N   0  0  0  0  0  0  0  0  0  0  0  0
   -5.0572   23.9620    4.2084 N   0  0  0  0  0  0  0  0  0  0  0  0
   -5.0166   24.8181    5.2227 N   0  0  0  0  0  0  0  0  0  0  0  0
   -4.1670   23.7680    1.9608 C   0  0  0  0  0  0  0  0  0  0  0  0
   -5.4126   23.8060    1.1101 C   0  0  0  0  0  0  0  0  0  0  0  0
   -5.7778   24.9805    0.4340 C   0  0  0  0  0  0  0  0  0  0  0  0
   -6.9285   25.0141   -0.3544 C   0  0  0  0  0  0  0  0  0  0  0  0
   -7.7264   23.8781   -0.4743 C   0  0  0  0  0  0  0  0  0  0  0  0
   -7.3752   22.7066    0.1940 C   0  0  0  0  0  0  0  0  0  0  0  0
   -6.2251   22.6691    0.9835 C   0  0  0  0  0  0  0  0  0  0  0  0
  1  2  2  0  0  0
  2  3  1  0  0  0
  3 17  1  0  0  0
 17 18  2  0  0  0
 18 19  1  0  0  0
 19 22  1  0  0  0
 22 23  1  0  0  0
 23 24  2  0  0  0
 24 25  1  0  0  0
 25 26  2  0  0  0
 26 27  1  0  0  0
 27 28  2  0  0  0
 19 20  1  0  0  0
 20 21  2  0  0  0
  2  5  1  0  0  0
  5  6  1  0  0  0
  6  7  2  0  0  0
  7  8  1  0  0  0
  8 11  1  0  0  0
 11 12  1  0  0  0
 12 13  1  0  0  0
 13 14  2  0  0  0
 14 15  1  0  0  0
 15 16  2  0  0  0
  8  9  2  0  0  0
  9 10  1  0  0  0
 21 17  1  0  0  0
 10  5  2  0  0  0
 28 23  1  0  0  0
 16 12  1  0  0  0
  3  4  1  0  0  0
M  END
> <minimizedAffinity>
-9.05446

$$$$
OCNT-2310916


 29 32  0  0  0  0  0  0  0  0999 V2000
   -6.0271   28.9863    7.3215 C   0  0  0  0  0  0  0  0  0  0  0  0
   -7.1944   29.3597    7.2219 O   0  0  0  0  0  0  0  0  0  0  0  0
   -5.2757   28.5470    6.2511 N   0  0  0  0  0  0  0  0  0  0  0  0
   -4.2738   28.4306    6.3975 H   0  0  0  0  0  0  0  0  0  0  0  0
   -5.2661   29.0364    8.6456 C   0  0  0  0  0  0  0  0  0  0  0  0
   -4.4359   33.8238    9.5472 C   0  0  0  0  0  0  0  0  0  0  0  0
   -3.8817   32.5946    8.8348 C   0  0  0  0  0  0  0  0  0  0  0  0
   -2.6163   32.3032    9.4134 O   0  0  0  0  0  0  0  0  0  0  0  0
   -2.1271   31.0920    9.0003 C   0  0  0  0  0  0  0  0  0  0  0  0
   -0.7377   30.9558    9.0217 C   0  0  0  0  0  0  0  0  0  0  0  0
   -0.1519   29.7520    8.6402 C   0  0  0  0  0  0  0  0  0  0  0  0
   -0.9581   28.6851    8.2467 C   0  0  0  0  0  0  0  0  0  0  0  0
   -2.3511   28.8142    8.2510 C   0  0  0  0  0  0  0  0  0  0  0  0
   -2.9542   30.0182    8.6383 C   0  0  0  0  0  0  0  0  0  0  0  0
   -4.3640   30.1820    8.7055 N   0  0  0  0  0  0  0  0  0  0  0  0
   -4.9080   31.4527    8.8552 C   0  0  0  0  0  0  0  0  0  0  0  0
   -6.1260   31.6483    8.8740 O   0  0  0  0  0  0  0  0  0  0  0  0
   -5.7670   28.6144    4.8963 C   0  0  0  0  0  0  0  0  0  0  0  0
   -5.7508   27.2598    4.2508 C   0  0  0  0  0  0  0  0  0  0  0  0
   -5.5683   27.1018    2.8753 C   0  0  0  0  0  0  0  0  0  0  0  0
   -5.5955   25.8262    2.3082 C   0  0  0  0  0  0  0  0  0  0  0  0
   -5.8098   24.7308    3.1407 C   0  0  0  0  0  0  0  0  0  0  0  0
   -5.9936   24.8624    4.4806 N   0  0  0  0  0  0  0  0  0  0  0  0
   -5.9711   26.1111    4.9998 C   0  0  0  0  0  0  0  0  0  0  0  0
   -5.8570   23.4126    2.6071 N   0  0  0  0  0  0  0  0  0  0  0  0
   -6.4586   23.0489    1.4199 C   0  0  0  0  0  0  0  0  0  0  0  0
   -6.2550   21.6967    1.2891 C   0  0  0  0  0  0  0  0  0  0  0  0
   -5.5492   21.2080    2.3546 N   0  0  0  0  0  0  0  0  0  0  0  0
   -5.3284   22.2516    3.1264 C   0  0  0  0  0  0  0  0  0  0  0  0
  6  7  1  0  0  0
  7  8  1  0  0  0
  8  9  1  0  0  0
  9 10  2  0  0  0
 10 11  1  0  0  0
 11 12  2  0  0  0
 12 13  1  0  0  0
 13 14  2  0  0  0
 14 15  1  0  0  0
 15  5  1  0  0  0
  5  1  1  0  0  0
  1  2  2  0  0  0
  1  3  1  0  0  0
  3 18  1  0  0  0
 18 19  1  0  0  0
 19 20  2  0  0  0
 20 21  1  0  0  0
 21 22  2  0  0  0
 22 25  1  0  0  0
 25 26  1  0  0  0
 26 27  2  0  0  0
 27 28  1  0  0  0
 28 29  2  0  0  0
 22 23  1  0  0  0
 23 24  2  0  0  0
 15 16  1  0  0  0
 16 17  2  0  0  0
 16  7  1  0  0  0
 14  9  1  0  0  0
 24 19  1  0  0  0
 29 25  1  0  0  0
  3  4  1  0  0  0
M  END
> <minimizedAffinity>
-10.02293

$$$$
OCNT-2310919


 23 25  0  0  0  0  0  0  0  0999 V2000
   -5.3386   28.2903    4.6416 C   0  0  0  0  0  0  0  0  0  0  0  0
   -5.0932   27.0873    3.8091 C   0  0  0  0  0  0  0  0  0  0  0  0
   -5.9534   26.5384    2.8816 C   0  0  0  0  0  0  0  0  0  0  0  0
   -5.3543   25.4081    2.3596 N   0  0  0  0  0  0  0  0  0  0  0  0
   -4.1421   25.2239    2.9148 N   0  0  0  0  0  0  0  0  0  0  0  0
   -3.9582   26.2248    3.7887 C   0  0  0  0  0  0  0  0  0  0  0  0
   -5.9067   24.5024    1.4006 C   0  0  0  0  0  0  0  0  0  0  0  0
   -6.5464   25.0377    0.2607 C   0  0  0  0  0  0  0  0  0  0  0  0
   -7.1291   24.2081   -0.7021 C   0  0  0  0  0  0  0  0  0  0  0  0
   -7.0850   22.8297   -0.5497 C   0  0  0  0  0  0  0  0  0  0  0  0
   -6.4523   22.2821    0.5638 C   0  0  0  0  0  0  0  0  0  0  0  0
   -5.8594   23.1016    1.5406 C   0  0  0  0  0  0  0  0  0  0  0  0
   -5.0472   22.2354    2.8009 Cl  0  0  0  0  0  0  0  0  0  0  0  0
   -2.7087   26.3173    4.5702 C   0  0  0  0  0  0  0  0  0  0  0  0
   -1.5878   26.3294    4.0664 O   0  0  0  0  0  0  0  0  0  0  0  0
   -2.8892   26.4143    5.9314 N   0  0  0  0  0  0  0  0  0  0  0  0
   -3.8046   26.6475    6.2968 H   0  0  0  0  0  0  0  0  0  0  0  0
   -1.7668   26.6627    6.8065 C   0  0  0  0  0  0  0  0  0  0  0  0
   -1.9989   27.9530    7.5358 C   0  0  0  0  0  0  0  0  0  0  0  0
   -3.1798   28.5269    7.6919 N   0  0  0  0  0  0  0  0  0  0  0  0
   -3.0317   29.7031    8.4007 C   0  0  0  0  0  0  0  0  0  0  0  0
   -1.7434   30.0150    8.7759 C   0  0  0  0  0  0  0  0  0  0  0  0
   -0.6690   28.7995    8.2255 S   0  0  0  0  0  0  0  0  0  0  0  0
  1  2  1  0  0  0
  2  3  2  0  0  0
  3  4  1  0  0  0
  4  7  1  0  0  0
  7  8  2  0  0  0
  8  9  1  0  0  0
  9 10  2  0  0  0
 10 11  1  0  0  0
 11 12  2  0  0  0
 12 13  1  0  0  0
  4  5  1  0  0  0
  5  6  2  0  0  0
  6 14  1  0  0  0
 14 15  2  0  0  0
 14 16  1  0  0  0
 16 18  1  0  0  0
 18 19  1  0  0  0
 19 20  2  0  0  0
 20 21  1  0  0  0
 21 22  2  0  0  0
 22 23  1  0  0  0
  6  2  1  0  0  0
 23 19  1  0  0  0
 12  7  1  0  0  0
 16 17  1  0  0  0
M  END
> <minimizedAffinity>
-8.57664

$$$$
OCNT-2310920


 23 24  0  0  0  0  0  0  0  0999 V2000
   -1.4500   29.3350    7.4459 C   0  0  0  0  0  0  0  0  0  0  0  0
   -1.4484   28.3558    8.6519 C   0  0  0  0  0  0  0  0  0  0  0  0
   -2.2607   30.6211    7.7217 C   0  0  0  0  0  0  0  0  0  0  0  0
   -2.1069   31.3244    8.9351 C   0  0  0  0  0  0  0  0  0  0  0  0
   -2.8396   32.4836    9.2089 C   0  0  0  0  0  0  0  0  0  0  0  0
   -3.7463   32.9623    8.2714 C   0  0  0  0  0  0  0  0  0  0  0  0
   -4.7409   34.5271    8.6361 Br  0  0  0  0  0  0  0  0  0  0  0  0
   -3.9255   32.2922    7.0667 C   0  0  0  0  0  0  0  0  0  0  0  0
   -3.1897   31.1325    6.7963 C   0  0  0  0  0  0  0  0  0  0  0  0
   -2.2872   27.2347    6.2678 C   0  0  0  0  0  0  0  0  0  0  0  0
   -2.1344   26.4902    7.2297 O   0  0  0  0  0  0  0  0  0  0  0  0
   -2.0223   28.5899    6.2993 N   0  0  0  0  0  0  0  0  0  0  0  0
   -2.0909   29.0637    5.4073 H   0  0  0  0  0  0  0  0  0  0  0  0
   -5.4624   26.5208    2.6906 C   0  0  0  0  0  0  0  0  0  0  0  0
   -4.1498   26.4366    3.3598 C   0  0  0  0  0  0  0  0  0  0  0  0
   -3.0338   25.8930    2.9240 N   0  0  0  0  0  0  0  0  0  0  0  0
   -2.1373   26.1010    3.9497 C   0  0  0  0  0  0  0  0  0  0  0  0
   -0.7396   25.6290    3.8541 C   0  0  0  0  0  0  0  0  0  0  0  0
   -2.7583   26.7749    4.9830 C   0  0  0  0  0  0  0  0  0  0  0  0
   -4.0633   26.9955    4.6048 O   0  0  0  0  0  0  0  0  0  0  0  0
    0.0541   29.6885    7.0838 C   0  0  0  0  0  0  0  0  0  0  0  0
    1.0825   29.2669    8.1491 C   0  0  0  0  0  0  0  0  0  0  0  0
    0.5340   29.1566    5.7240 C   0  0  0  0  0  0  0  0  0  0  0  0
 14 15  1  0  0  0
 15 16  2  0  0  0
 16 17  1  0  0  0
 17 18  1  0  0  0
 17 19  2  0  0  0
 19 10  1  0  0  0
 10 11  2  0  0  0
 10 12  1  0  0  0
 12  1  1  0  0  0
  1  2  1  0  0  0
  1  3  1  0  0  0
  3  4  1  0  0  0
  4  5  2  0  0  0
  5  6  1  0  0  0
  6  7  1  0  0  0
  6  8  2  0  0  0
  8  9  1  0  0  0
  1 21  1  0  0  0
 21 22  1  0  0  0
 21 23  1  0  0  0
 19 20  1  0  0  0
 20 15  1  0  0  0
  9  3  2  0  0  0
 12 13  1  0  0  0
M  END
> <minimizedAffinity>
-8.76692

$$$$
OCNT-2310942


 22 25  0  0  0  0  0  0  0  0999 V2000
   -3.7061   31.6344    9.0212 C   0  0  0  0  0  0  0  0  0  0  0  0
   -2.6612   32.4058    9.5324 C   0  0  0  0  0  0  0  0  0  0  0  0
   -1.3506   31.9161    9.5275 C   0  0  0  0  0  0  0  0  0  0  0  0
   -1.0328   30.6644    9.0184 C   0  0  0  0  0  0  0  0  0  0  0  0
    0.2412   30.2625    9.0579 N   0  0  0  0  0  0  0  0  0  0  0  0
    0.5020   29.0464    8.5672 C   0  0  0  0  0  0  0  0  0  0  0  0
   -0.3834   28.2024    8.0311 N   0  0  0  0  0  0  0  0  0  0  0  0
   -1.6617   28.6235    7.9833 C   0  0  0  0  0  0  0  0  0  0  0  0
   -2.0617   29.8775    8.4886 C   0  0  0  0  0  0  0  0  0  0  0  0
   -3.3945   30.3701    8.5039 C   0  0  0  0  0  0  0  0  0  0  0  0
   -2.6363   27.7624    7.3910 N   0  0  0  0  0  0  0  0  0  0  0  0
   -2.2907   26.4597    6.8464 C   0  0  0  0  0  0  0  0  0  0  0  0
   -2.4708   27.0463    5.4506 C   0  0  0  0  0  0  0  0  0  0  0  0
   -3.2703   28.1484    6.1387 C   0  0  0  0  0  0  0  0  0  0  0  0
   -3.2572   26.2153    4.5258 N   0  0  0  0  0  0  0  0  0  0  0  0
   -4.3378   25.4338    4.8442 C   0  0  0  0  0  0  0  0  0  0  0  0
   -4.7522   24.8519    3.6692 C   0  0  0  0  0  0  0  0  0  0  0  0
   -3.8663   25.3466    2.6971 C   0  0  0  0  0  0  0  0  0  0  0  0
   -2.9596   26.1793    3.2117 N   0  0  0  0  0  0  0  0  0  0  0  0
   -5.2966   33.4057    8.1938 C   0  0  0  0  0  0  0  0  0  0  0  0
   -5.1420   32.1252    9.0181 C   0  0  0  0  0  0  0  0  0  0  0  0
   -6.1053   31.0414    8.5279 C   0  0  0  0  0  0  0  0  0  0  0  0
 20 21  1  0  0  0
 21 22  1  0  0  0
 21  1  1  0  0  0
  1  2  1  0  0  0
  2  3  2  0  0  0
  3  4  1  0  0  0
  4  5  2  0  0  0
  5  6  1  0  0  0
  6  7  2  0  0  0
  7  8  1  0  0  0
  8 11  1  0  0  0
 11 12  1  0  0  0
 12 13  1  0  0  0
 13 15  1  0  0  0
 15 16  1  0  0  0
 16 17  2  0  0  0
 17 18  1  0  0  0
 18 19  2  0  0  0
 13 14  1  0  0  0
  8  9  2  0  0  0
  9 10  1  0  0  0
 10  1  2  0  0  0
  9  4  1  0  0  0
 14 11  1  0  0  0
 19 15  1  0  0  0
M  END
> <minimizedAffinity>
-8.77662

$$$$
OCNT-2310944


 22 25  0  0  0  0  0  0  0  0999 V2000
   -4.9353   32.5588    8.6213 N   0  0  0  0  0  0  0  0  0  0  0  0
   -4.4492   32.1859    7.2663 C   0  0  0  0  0  0  0  0  0  0  0  0
   -3.0227   31.5793    7.1774 C   0  0  0  0  0  0  0  0  0  0  0  0
   -2.7428   30.7389    8.3533 N   0  0  0  0  0  0  0  0  0  0  0  0
   -2.8637   31.4560    9.6415 C   0  0  0  0  0  0  0  0  0  0  0  0
   -3.7730   32.7067    9.5229 C   0  0  0  0  0  0  0  0  0  0  0  0
   -1.5535   29.9975    8.2548 C   0  0  0  0  0  0  0  0  0  0  0  0
   -0.4431   30.4070    8.9281 N   0  0  0  0  0  0  0  0  0  0  0  0
    0.6904   29.6842    8.8378 C   0  0  0  0  0  0  0  0  0  0  0  0
    0.9033   28.5595    8.1385 N   0  0  0  0  0  0  0  0  0  0  0  0
   -0.1961   28.1969    7.4648 C   0  0  0  0  0  0  0  0  0  0  0  0
   -1.4273   28.8364    7.4584 C   0  0  0  0  0  0  0  0  0  0  0  0
   -2.2555   28.0928    6.5650 C   0  0  0  0  0  0  0  0  0  0  0  0
   -1.5206   27.0278    6.0869 C   0  0  0  0  0  0  0  0  0  0  0  0
   -0.2715   27.1037    6.6460 N   0  0  0  0  0  0  0  0  0  0  0  0
    0.4998   26.4733    6.4819 H   0  0  0  0  0  0  0  0  0  0  0  0
   -5.8961   31.5456    9.1015 C   0  0  0  0  0  0  0  0  0  0  0  0
   -7.5714   29.8260    6.1585 C   0  0  0  0  0  0  0  0  0  0  0  0
   -6.8486   28.7156    6.5316 C   0  0  0  0  0  0  0  0  0  0  0  0
   -5.8787   29.0118    7.9077 S   0  0  0  0  0  0  0  0  0  0  0  0
   -6.4061   30.6417    8.0087 C   0  0  0  0  0  0  0  0  0  0  0  0
   -7.3202   30.9369    7.0142 C   0  0  0  0  0  0  0  0  0  0  0  0
 18 19  2  0  0  0
 19 20  1  0  0  0
 20 21  1  0  0  0
 21 17  1  0  0  0
 17  1  1  0  0  0
  1  2  1  0  0  0
  2  3  1  0  0  0
  3  4  1  0  0  0
  4  7  1  0  0  0
  7  8  1  0  0  0
  8  9  2  0  0  0
  9 10  1  0  0  0
 10 11  2  0  0  0
 11 12  1  0  0  0
 12 13  1  0  0  0
 13 14  2  0  0  0
 14 15  1  0  0  0
  4  5  1  0  0  0
  5  6  1  0  0  0
 21 22  2  0  0  0
 22 18  1  0  0  0
  6  1  1  0  0  0
 12  7  2  0  0  0
 15 11  1  0  0  0
 15 16  1  0  0  0
M  END
> <minimizedAffinity>
-7.68486

$$$$
OCNT-2310945


 23 25  0  0  0  0  0  0  0  0999 V2000
   -3.6311   27.1866    5.2954 N   0  0  0  0  0  0  0  0  0  0  0  0
   -3.7928   25.7147    5.3097 C   0  0  0  0  0  0  0  0  0  0  0  0
   -5.1008   25.2777    4.5934 C   0  0  0  0  0  0  0  0  0  0  0  0
   -5.5722   26.1634    3.5062 N   0  0  0  0  0  0  0  0  0  0  0  0
   -5.7540   27.5352    4.0577 C   0  0  0  0  0  0  0  0  0  0  0  0
   -4.9217   27.8968    5.3201 C   0  0  0  0  0  0  0  0  0  0  0  0
   -2.2567   29.0066    8.0685 C   0  0  0  0  0  0  0  0  0  0  0  0
   -0.9460   28.7245    8.0812 N   0  0  0  0  0  0  0  0  0  0  0  0
   -0.5304   27.8736    7.1234 C   0  0  0  0  0  0  0  0  0  0  0  0
   -1.3598   27.3219    6.1696 C   0  0  0  0  0  0  0  0  0  0  0  0
   -0.7108   26.2010    5.0337 Cl  0  0  0  0  0  0  0  0  0  0  0  0
   -2.7052   27.6885    6.2284 C   0  0  0  0  0  0  0  0  0  0  0  0
   -3.1492   28.5261    7.1902 N   0  0  0  0  0  0  0  0  0  0  0  0
   -1.9144   30.9306    9.3475 C   0  0  0  0  0  0  0  0  0  0  0  0
   -2.7864   29.8606    9.0107 O   0  0  0  0  0  0  0  0  0  0  0  0
   -4.6363   26.2029    2.3603 C   0  0  0  0  0  0  0  0  0  0  0  0
   -4.3484   24.8224    1.7443 C   0  0  0  0  0  0  0  0  0  0  0  0
   -5.5365   24.2975    0.9722 C   0  0  0  0  0  0  0  0  0  0  0  0
   -6.0037   22.9940    1.1860 C   0  0  0  0  0  0  0  0  0  0  0  0
   -7.1117   22.5165    0.4843 C   0  0  0  0  0  0  0  0  0  0  0  0
   -7.7644   23.3379   -0.4332 C   0  0  0  0  0  0  0  0  0  0  0  0
   -7.3111   24.6379   -0.6490 C   0  0  0  0  0  0  0  0  0  0  0  0
   -6.2033   25.1174    0.0514 C   0  0  0  0  0  0  0  0  0  0  0  0
 14 15  1  0  0  0
 15  7  1  0  0  0
  7  8  2  0  0  0
  8  9  1  0  0  0
  9 10  2  0  0  0
 10 11  1  0  0  0
 10 12  1  0  0  0
 12  1  1  0  0  0
  1  2  1  0  0  0
  2  3  1  0  0  0
  3  4  1  0  0  0
  4 16  1  0  0  0
 16 17  1  0  0  0
 17 18  1  0  0  0
 18 19  2  0  0  0
 19 20  1  0  0  0
 20 21  2  0  0  0
 21 22  1  0  0  0
 22 23  2  0  0  0
  4  5  1  0  0  0
  5  6  1  0  0  0
 12 13  2  0  0  0
 13  7  1  0  0  0
  6  1  1  0  0  0
 23 18  1  0  0  0
M  END
> <minimizedAffinity>
-8.77451

$$$$
OCNT-2310949


 22 25  0  0  0  0  0  0  0  0999 V2000
   -3.7849   28.3669    6.1368 O   0  0  0  0  0  0  0  0  0  0  0  0
   -4.7573   29.0700    6.4273 C   0  0  0  0  0  0  0  0  0  0  0  0
   -4.7175   30.1070    7.3477 N   0  0  0  0  0  0  0  0  0  0  0  0
   -5.8115   31.0570    7.6312 C   0  0  0  0  0  0  0  0  0  0  0  0
   -5.3555   31.9513    8.7897 C   0  0  0  0  0  0  0  0  0  0  0  0
   -3.9049   31.6048    8.8944 C   0  0  0  0  0  0  0  0  0  0  0  0
   -2.9578   32.2026    9.7147 C   0  0  0  0  0  0  0  0  0  0  0  0
   -1.6587   31.6966    9.6950 C   0  0  0  0  0  0  0  0  0  0  0  0
   -1.3421   30.6117    8.8707 C   0  0  0  0  0  0  0  0  0  0  0  0
   -0.0873   30.1409    8.8720 F   0  0  0  0  0  0  0  0  0  0  0  0
   -2.2956   30.0100    8.0525 C   0  0  0  0  0  0  0  0  0  0  0  0
   -3.5813   30.5212    8.0712 C   0  0  0  0  0  0  0  0  0  0  0  0
   -6.0983   28.7830    5.7711 C   0  0  0  0  0  0  0  0  0  0  0  0
   -6.0235   27.6383    4.8287 C   0  0  0  0  0  0  0  0  0  0  0  0
   -5.7988   27.6442    3.4672 C   0  0  0  0  0  0  0  0  0  0  0  0
   -5.8210   26.3334    3.0998 N   0  0  0  0  0  0  0  0  0  0  0  0
   -5.6862   25.8035    1.7588 C   0  0  0  0  0  0  0  0  0  0  0  0
   -5.3867   24.3044    1.7554 C   0  0  0  0  0  0  0  0  0  0  0  0
   -6.2897   23.5670    2.7465 C   0  0  0  0  0  0  0  0  0  0  0  0
   -6.0809   24.0864    4.1713 C   0  0  0  0  0  0  0  0  0  0  0  0
   -6.0464   25.5756    4.2202 C   0  0  0  0  0  0  0  0  0  0  0  0
   -6.1732   26.3433    5.2824 N   0  0  0  0  0  0  0  0  0  0  0  0
  1  2  2  0  0  0
  2 13  1  0  0  0
 13 14  1  0  0  0
 14 15  2  0  0  0
 15 16  1  0  0  0
 16 17  1  0  0  0
 17 18  1  0  0  0
 18 19  1  0  0  0
 19 20  1  0  0  0
 20 21  1  0  0  0
 21 22  2  0  0  0
  2  3  1  0  0  0
  3  4  1  0  0  0
  4  5  1  0  0  0
  5  6  1  0  0  0
  6  7  1  0  0  0
  7  8  2  0  0  0
  8  9  1  0  0  0
  9 10  1  0  0  0
  9 11  2  0  0  0
 11 12  1  0  0  0
 22 14  1  0  0  0
 12  3  1  0  0  0
 21 16  1  0  0  0
 12  6  2  0  0  0
M  END
> <minimizedAffinity>
-9.06763

$$$$
OCNT-2310958


 27 29  0  0  0  0  0  0  0  0999 V2000
   -5.5628   26.4779    5.3858 N   0  0  0  0  0  0  0  0  0  0  0  0
   -4.3680   27.1356    5.5604 C   0  0  0  0  0  0  0  0  0  0  0  0
   -3.3296   26.9659    4.9379 O   0  0  0  0  0  0  0  0  0  0  0  0
   -4.4656   28.0639    6.5804 N   0  0  0  0  0  0  0  0  0  0  0  0
   -6.2272   26.5795    6.1389 H   0  0  0  0  0  0  0  0  0  0  0  0
   -5.3792   28.4838    6.6878 H   0  0  0  0  0  0  0  0  0  0  0  0
   -3.3081   28.8769    6.9546 C   0  0  0  0  0  0  0  0  0  0  0  0
   -2.3450   28.0459    7.8185 C   0  0  0  0  0  0  0  0  0  0  0  0
   -1.0762   28.8363    8.1403 C   0  0  0  0  0  0  0  0  0  0  0  0
   -1.3994   30.2073    8.6040 C   0  0  0  0  0  0  0  0  0  0  0  0
   -0.6394   31.0389    9.2779 N   0  0  0  0  0  0  0  0  0  0  0  0
   -1.3500   32.2044    9.4586 N   0  0  0  0  0  0  0  0  0  0  0  0
   -2.5299   32.0637    8.8887 C   0  0  0  0  0  0  0  0  0  0  0  0
   -3.6168   33.0647    8.8376 C   0  0  0  0  0  0  0  0  0  0  0  0
   -2.5977   30.8130    8.3433 N   0  0  0  0  0  0  0  0  0  0  0  0
   -3.7128   30.1806    7.6754 C   0  0  0  0  0  0  0  0  0  0  0  0
   -6.6307   23.5458    2.5211 C   0  0  0  0  0  0  0  0  0  0  0  0
   -5.9204   24.6777    2.1182 C   0  0  0  0  0  0  0  0  0  0  0  0
   -5.5464   25.6574    3.0508 C   0  0  0  0  0  0  0  0  0  0  0  0
   -5.8815   25.5245    4.3985 C   0  0  0  0  0  0  0  0  0  0  0  0
   -6.5913   24.3922    4.8060 C   0  0  0  0  0  0  0  0  0  0  0  0
   -6.9354   23.4011    3.8812 C   0  0  0  0  0  0  0  0  0  0  0  0
   -7.6498   22.3325    4.3670 O   0  0  0  0  0  0  0  0  0  0  0  0
   -8.9941   22.7161    4.6604 C   0  0  0  0  0  0  0  0  0  0  0  0
   -7.0632   22.5534    1.6849 O   0  0  0  0  0  0  0  0  0  0  0  0
   -7.8399   22.9296   -0.5325 C   0  0  0  0  0  0  0  0  0  0  0  0
   -6.6321   22.5996    0.3268 C   0  0  0  0  0  0  0  0  0  0  0  0
 26 27  1  0  0  0
 27 25  1  0  0  0
 25 17  1  0  0  0
 17 18  1  0  0  0
 18 19  2  0  0  0
 19 20  1  0  0  0
 20  1  1  0  0  0
  1  2  1  0  0  0
  2  3  2  0  0  0
  2  4  1  0  0  0
  4  7  1  0  0  0
  7  8  1  0  0  0
  8  9  1  0  0  0
  9 10  1  0  0  0
 10 11  2  0  0  0
 11 12  1  0  0  0
 12 13  2  0  0  0
 13 14  1  0  0  0
 13 15  1  0  0  0
 15 16  1  0  0  0
 20 21  2  0  0  0
 21 22  1  0  0  0
 22 23  1  0  0  0
 23 24  1  0  0  0
 22 17  2  0  0  0
 16  7  1  0  0  0
 15 10  1  0  0  0
  1  5  1  0  0  0
  4  6  1  0  0  0
M  END
> <minimizedAffinity>
-8.81905

$$$$
OCNT-2310977


 26 28  0  0  0  0  0  0  0  0999 V2000
   -3.5652   29.2976    7.5016 C   0  0  0  0  0  0  0  0  0  0  0  0
   -3.0654   29.7592    8.5185 O   0  0  0  0  0  0  0  0  0  0  0  0
   -3.1616   28.1184    6.9329 N   0  0  0  0  0  0  0  0  0  0  0  0
   -2.1133   27.2985    7.5053 C   0  0  0  0  0  0  0  0  0  0  0  0
   -1.7543   26.3090    6.3969 C   0  0  0  0  0  0  0  0  0  0  0  0
   -0.6716   26.8736    5.4715 C   0  0  0  0  0  0  0  0  0  0  0  0
   -0.5869   26.0500    4.1958 C   0  0  0  0  0  0  0  0  0  0  0  0
   -1.9306   26.0336    3.4796 C   0  0  0  0  0  0  0  0  0  0  0  0
   -3.0109   25.5326    4.3369 N   0  0  0  0  0  0  0  0  0  0  0  0
   -4.2223   25.0635    3.8032 C   0  0  0  0  0  0  0  0  0  0  0  0
   -5.2800   25.1824    4.4157 O   0  0  0  0  0  0  0  0  0  0  0  0
   -4.0939   24.4510    2.5771 N   0  0  0  0  0  0  0  0  0  0  0  0
   -3.1039   26.1086    5.6831 C   0  0  0  0  0  0  0  0  0  0  0  0
   -3.7605   27.4992    5.7597 C   0  0  0  0  0  0  0  0  0  0  0  0
   -3.1882   24.0456    2.4003 H   0  0  0  0  0  0  0  0  0  0  0  0
   -5.1364   24.0348    1.7214 C   0  0  0  0  0  0  0  0  0  0  0  0
   -5.8402   24.8973    0.8868 C   0  0  0  0  0  0  0  0  0  0  0  0
   -6.8327   24.3679    0.0769 C   0  0  0  0  0  0  0  0  0  0  0  0
   -7.1568   23.0581    0.0389 N   0  0  0  0  0  0  0  0  0  0  0  0
   -6.4556   22.2413    0.8498 C   0  0  0  0  0  0  0  0  0  0  0  0
   -5.4470   22.6748    1.6956 C   0  0  0  0  0  0  0  0  0  0  0  0
   -4.5677   29.8729    6.7922 O   0  0  0  0  0  0  0  0  0  0  0  0
   -6.0834   31.4396    7.9392 C   0  0  0  0  0  0  0  0  0  0  0  0
   -5.8908   30.0325    7.3630 C   0  0  0  0  0  0  0  0  0  0  0  0
   -6.8496   29.8538    6.1757 C   0  0  0  0  0  0  0  0  0  0  0  0
   -6.1872   28.9423    8.3987 C   0  0  0  0  0  0  0  0  0  0  0  0
 23 24  1  0  0  0
 24 25  1  0  0  0
 24 26  1  0  0  0
 24 22  1  0  0  0
 22  1  1  0  0  0
  1  2  2  0  0  0
  1  3  1  0  0  0
  3  4  1  0  0  0
  4  5  1  0  0  0
  5  6  1  0  0  0
  6  7  1  0  0  0
  7  8  1  0  0  0
  8  9  1  0  0  0
  9 10  1  0  0  0
 10 11  2  0  0  0
 10 12  1  0  0  0
 12 16  1  0  0  0
 16 17  2  0  0  0
 17 18  1  0  0  0
 18 19  2  0  0  0
 19 20  1  0  0  0
 20 21  2  0  0  0
  9 13  1  0  0  0
 13 14  1  0  0  0
 14  3  1  0  0  0
 13  5  1  0  0  0
 21 16  1  0  0  0
 12 15  1  0  0  0
M  END
> <minimizedAffinity>
-8.92786

$$$$
OCNT-2310978


 22 24  0  0  0  0  0  0  0  0999 V2000
   -3.7993   25.6573    2.0239 N   0  0  0  0  0  0  0  0  0  0  0  0
   -3.4029   26.3332    1.3742 H   0  0  0  0  0  0  0  0  0  0  0  0
   -3.7751   26.2493    3.2949 C   0  0  0  0  0  0  0  0  0  0  0  0
   -4.9203   26.8417    3.7178 N   0  0  0  0  0  0  0  0  0  0  0  0
   -4.9524   27.4466    4.9281 C   0  0  0  0  0  0  0  0  0  0  0  0
   -6.2633   28.0395    5.3476 C   0  0  0  0  0  0  0  0  0  0  0  0
   -3.9376   27.5344    5.8089 N   0  0  0  0  0  0  0  0  0  0  0  0
   -2.8135   26.9662    5.3424 C   0  0  0  0  0  0  0  0  0  0  0  0
   -2.6545   26.3264    4.1275 C   0  0  0  0  0  0  0  0  0  0  0  0
   -1.2973   25.9415    4.1097 C   0  0  0  0  0  0  0  0  0  0  0  0
   -0.6445   26.2792    5.2286 N   0  0  0  0  0  0  0  0  0  0  0  0
   -1.5947   26.9045    5.9619 N   0  0  0  0  0  0  0  0  0  0  0  0
   -1.2541   27.4331    7.2584 C   0  0  0  0  0  0  0  0  0  0  0  0
   -6.0167   22.7914    1.1693 C   0  0  0  0  0  0  0  0  0  0  0  0
   -5.0082   23.5865    1.7479 C   0  0  0  0  0  0  0  0  0  0  0  0
   -4.8494   24.9383    1.4175 C   0  0  0  0  0  0  0  0  0  0  0  0
   -5.6984   25.4872    0.4562 C   0  0  0  0  0  0  0  0  0  0  0  0
   -6.7012   24.7134   -0.1345 C   0  0  0  0  0  0  0  0  0  0  0  0
   -6.8712   23.3638    0.2084 C   0  0  0  0  0  0  0  0  0  0  0  0
   -7.9725   22.5790   -0.4498 C   0  0  0  0  0  0  0  0  0  0  0  0
   -5.4417   21.0898    2.9284 C   0  0  0  0  0  0  0  0  0  0  0  0
   -6.1179   21.3423    1.5889 C   0  0  0  0  0  0  0  0  0  0  0  0
 21 22  1  0  0  0
 22 14  1  0  0  0
 14 15  1  0  0  0
 15 16  2  0  0  0
 16  1  1  0  0  0
  1  3  1  0  0  0
  3  4  1  0  0  0
  4  5  2  0  0  0
  5  6  1  0  0  0
  5  7  1  0  0  0
  7  8  2  0  0  0
  8  9  1  0  0  0
  9 10  1  0  0  0
 10 11  2  0  0  0
 11 12  1  0  0  0
 12 13  1  0  0  0
 16 17  1  0  0  0
 17 18  2  0  0  0
 18 19  1  0  0  0
 19 20  1  0  0  0
 19 14  2  0  0  0
  9  3  2  0  0  0
 12  8  1  0  0  0
  1  2  1  0  0  0
M  END
> <minimizedAffinity>
-8.94958

$$$$
OCNT-2310979


 27 30  0  0  0  0  0  0  0  0999 V2000
   -5.3897   27.8770    5.4015 C   0  0  0  0  0  0  0  0  0  0  0  0
   -6.3543   27.1746    5.6824 O   0  0  0  0  0  0  0  0  0  0  0  0
   -4.4502   27.6107    4.4234 N   0  0  0  0  0  0  0  0  0  0  0  0
   -3.7534   28.3066    4.1959 H   0  0  0  0  0  0  0  0  0  0  0  0
   -2.4216   31.6295    6.8954 C   0  0  0  0  0  0  0  0  0  0  0  0
   -3.8055   31.0289    6.8946 C   0  0  0  0  0  0  0  0  0  0  0  0
   -3.9648   29.8106    6.1948 C   0  0  0  0  0  0  0  0  0  0  0  0
   -5.2024   29.1613    6.1330 C   0  0  0  0  0  0  0  0  0  0  0  0
   -6.2948   29.7108    6.8005 C   0  0  0  0  0  0  0  0  0  0  0  0
   -6.1620   30.9154    7.4976 C   0  0  0  0  0  0  0  0  0  0  0  0
   -4.9276   31.5954    7.5520 C   0  0  0  0  0  0  0  0  0  0  0  0
   -4.8617   32.8295    8.2755 N   0  0  0  0  0  0  0  0  0  0  0  0
   -5.0358   34.1141    7.8024 C   0  0  0  0  0  0  0  0  0  0  0  0
   -4.8879   34.9951    8.7653 N   0  0  0  0  0  0  0  0  0  0  0  0
   -4.6206   34.2111    9.8403 C   0  0  0  0  0  0  0  0  0  0  0  0
   -4.5913   32.9016    9.6015 N   0  0  0  0  0  0  0  0  0  0  0  0
   -4.4485   26.4617    3.6544 C   0  0  0  0  0  0  0  0  0  0  0  0
   -5.4525   26.1226    2.7797 C   0  0  0  0  0  0  0  0  0  0  0  0
   -5.0994   24.9202    2.1980 N   0  0  0  0  0  0  0  0  0  0  0  0
   -3.9034   24.4807    2.6681 N   0  0  0  0  0  0  0  0  0  0  0  0
   -3.5199   25.4122    3.5437 C   0  0  0  0  0  0  0  0  0  0  0  0
   -5.8236   24.1689    1.2283 C   0  0  0  0  0  0  0  0  0  0  0  0
   -6.5997   24.8450    0.2735 C   0  0  0  0  0  0  0  0  0  0  0  0
   -7.3183   24.1298   -0.6868 C   0  0  0  0  0  0  0  0  0  0  0  0
   -7.2684   22.7378   -0.7021 C   0  0  0  0  0  0  0  0  0  0  0  0
   -6.5004   22.0584    0.2420 C   0  0  0  0  0  0  0  0  0  0  0  0
   -5.7779   22.7677    1.2069 C   0  0  0  0  0  0  0  0  0  0  0  0
  5  6  1  0  0  0
  6  7  1  0  0  0
  7  8  2  0  0  0
  8  1  1  0  0  0
  1  2  2  0  0  0
  1  3  1  0  0  0
  3 17  1  0  0  0
 17 18  2  0  0  0
 18 19  1  0  0  0
 19 22  1  0  0  0
 22 23  2  0  0  0
 23 24  1  0  0  0
 24 25  2  0  0  0
 25 26  1  0  0  0
 26 27  2  0  0  0
 19 20  1  0  0  0
 20 21  2  0  0  0
  8  9  1  0  0  0
  9 10  2  0  0  0
 10 11  1  0  0  0
 11 12  1  0  0  0
 12 13  1  0  0  0
 13 14  2  0  0  0
 14 15  1  0  0  0
 15 16  2  0  0  0
 11  6  2  0  0  0
 16 12  1  0  0  0
 21 17  1  0  0  0
 27 22  1  0  0  0
  3  4  1  0  0  0
M  END
> <minimizedAffinity>
-9.55736

$$$$
OCNT-2310981


 24 27  0  0  0  0  0  0  0  0999 V2000
   -3.6977   25.7120    3.2816 C   0  0  0  0  0  0  0  0  0  0  0  0
   -4.7963   26.1029    4.2817 C   0  0  0  0  0  0  0  0  0  0  0  0
   -4.4784   27.4288    4.9715 C   0  0  0  0  0  0  0  0  0  0  0  0
   -3.2040   27.3623    5.6920 N   0  0  0  0  0  0  0  0  0  0  0  0
   -2.2753   26.2928    5.3192 C   0  0  0  0  0  0  0  0  0  0  0  0
   -2.2985   26.0788    3.8067 C   0  0  0  0  0  0  0  0  0  0  0  0
   -2.8986   28.2466    6.7308 C   0  0  0  0  0  0  0  0  0  0  0  0
   -3.8964   28.7694    7.4266 N   0  0  0  0  0  0  0  0  0  0  0  0
   -3.6408   29.6554    8.4565 C   0  0  0  0  0  0  0  0  0  0  0  0
   -2.4109   30.0409    8.8291 C   0  0  0  0  0  0  0  0  0  0  0  0
   -1.3466   29.5121    8.1364 N   0  0  0  0  0  0  0  0  0  0  0  0
    0.0036   29.6603    8.2379 C   0  0  0  0  0  0  0  0  0  0  0  0
    0.6008   28.9108    7.3350 N   0  0  0  0  0  0  0  0  0  0  0  0
   -0.3813   28.2514    6.6195 N   0  0  0  0  0  0  0  0  0  0  0  0
   -1.5421   28.6336    7.1083 C   0  0  0  0  0  0  0  0  0  0  0  0
   -3.8191   24.2542    2.7843 C   0  0  0  0  0  0  0  0  0  0  0  0
   -8.1143   23.0895   -0.7035 F   0  0  0  0  0  0  0  0  0  0  0  0
   -7.0961   23.3688    0.1218 C   0  0  0  0  0  0  0  0  0  0  0  0
   -6.5813   22.3653    0.9339 C   0  0  0  0  0  0  0  0  0  0  0  0
   -5.5179   22.6505    1.7953 C   0  0  0  0  0  0  0  0  0  0  0  0
   -4.9696   23.9426    1.8543 C   0  0  0  0  0  0  0  0  0  0  0  0
   -5.4962   24.9381    1.0165 C   0  0  0  0  0  0  0  0  0  0  0  0
   -6.5555   24.6463    0.1608 C   0  0  0  0  0  0  0  0  0  0  0  0
   -7.0468   25.6122   -0.6276 F   0  0  0  0  0  0  0  0  0  0  0  0
 17 18  1  0  0  0
 18 19  1  0  0  0
 19 20  2  0  0  0
 20 21  1  0  0  0
 21 16  1  0  0  0
 16  1  1  0  0  0
  1  2  1  0  0  0
  2  3  1  0  0  0
  3  4  1  0  0  0
  4  7  1  0  0  0
  7  8  2  0  0  0
  8  9  1  0  0  0
  9 10  2  0  0  0
 10 11  1  0  0  0
 11 12  1  0  0  0
 12 13  2  0  0  0
 13 14  1  0  0  0
 14 15  2  0  0  0
  4  5  1  0  0  0
  5  6  1  0  0  0
 21 22  2  0  0  0
 22 23  1  0  0  0
 23 24  1  0  0  0
 23 18  2  0  0  0
  6  1  1  0  0  0
 15  7  1  0  0  0
 15 11  1  0  0  0
M  END
> <minimizedAffinity>
-9.84160

$$$$
OCNT-2310988


 28 31  0  0  0  0  0  0  0  0999 V2000
   -4.8846   29.9223    8.4165 O   0  0  0  0  0  0  0  0  0  0  0  0
   -4.9509   30.7896    7.5498 C   0  0  0  0  0  0  0  0  0  0  0  0
   -5.9892   30.8877    6.6471 N   0  0  0  0  0  0  0  0  0  0  0  0
   -5.8759   31.5234    5.8672 H   0  0  0  0  0  0  0  0  0  0  0  0
   -3.8796   31.8552    7.3790 C   0  0  0  0  0  0  0  0  0  0  0  0
   -2.6878   31.5656    8.2356 C   0  0  0  0  0  0  0  0  0  0  0  0
   -2.3969   32.1256    9.4695 C   0  0  0  0  0  0  0  0  0  0  0  0
   -1.1991   31.6142    9.9021 N   0  0  0  0  0  0  0  0  0  0  0  0
   -0.7090   30.7337    8.9796 C   0  0  0  0  0  0  0  0  0  0  0  0
    0.4542   30.0706    9.1065 N   0  0  0  0  0  0  0  0  0  0  0  0
    0.7094   29.2538    8.0595 C   0  0  0  0  0  0  0  0  0  0  0  0
   -0.1033   29.0872    6.9457 C   0  0  0  0  0  0  0  0  0  0  0  0
   -1.2973   29.8063    6.8643 C   0  0  0  0  0  0  0  0  0  0  0  0
   -1.6157   30.6667    7.9284 C   0  0  0  0  0  0  0  0  0  0  0  0
   -0.7273   31.8296   10.7683 H   0  0  0  0  0  0  0  0  0  0  0  0
   -6.9698   29.8361    6.4999 C   0  0  0  0  0  0  0  0  0  0  0  0
   -6.5252   28.8461    5.4526 C   0  0  0  0  0  0  0  0  0  0  0  0
   -6.2218   29.2690    4.1531 C   0  0  0  0  0  0  0  0  0  0  0  0
   -5.8390   28.3520    3.1657 C   0  0  0  0  0  0  0  0  0  0  0  0
   -5.7332   26.9841    3.4626 C   0  0  0  0  0  0  0  0  0  0  0  0
   -6.0266   26.5707    4.7677 C   0  0  0  0  0  0  0  0  0  0  0  0
   -5.9658   25.2857    5.1421 F   0  0  0  0  0  0  0  0  0  0  0  0
   -6.4188   27.4852    5.7490 C   0  0  0  0  0  0  0  0  0  0  0  0
   -5.3335   26.0579    2.4549 N   0  0  0  0  0  0  0  0  0  0  0  0
   -4.1451   25.3649    2.3525 C   0  0  0  0  0  0  0  0  0  0  0  0
   -4.2273   24.6119    1.2044 C   0  0  0  0  0  0  0  0  0  0  0  0
   -5.4261   24.8036    0.5866 N   0  0  0  0  0  0  0  0  0  0  0  0
   -6.0684   25.6587    1.3531 C   0  0  0  0  0  0  0  0  0  0  0  0
  1  2  2  0  0  0
  2  5  1  0  0  0
  5  6  1  0  0  0
  6  7  2  0  0  0
  7  8  1  0  0  0
  8  9  1  0  0  0
  9 10  1  0  0  0
 10 11  2  0  0  0
 11 12  1  0  0  0
 12 13  2  0  0  0
 13 14  1  0  0  0
  2  3  1  0  0  0
  3 16  1  0  0  0
 16 17  1  0  0  0
 17 18  1  0  0  0
 18 19  2  0  0  0
 19 20  1  0  0  0
 20 24  1  0  0  0
 24 25  1  0  0  0
 25 26  2  0  0  0
 26 27  1  0  0  0
 27 28  2  0  0  0
 20 21  2  0  0  0
 21 22  1  0  0  0
 21 23  1  0  0  0
 14  6  1  0  0  0
 23 17  2  0  0  0
 14  9  2  0  0  0
 28 24  1  0  0  0
  8 15  1  0  0  0
  3  4  1  0  0  0
M  END
> <minimizedAffinity>
-9.78191

$$$$
OCNT-2310997


 30 33  0  0  0  0  0  0  0  0999 V2000
   -6.3755   30.3706    6.6768 N   0  0  0  0  0  0  0  0  0  0  0  0
   -5.3556   29.8867    7.4506 C   0  0  0  0  0  0  0  0  0  0  0  0
   -5.2743   28.7048    7.7738 O   0  0  0  0  0  0  0  0  0  0  0  0
   -4.4436   30.8277    7.8603 N   0  0  0  0  0  0  0  0  0  0  0  0
   -4.4487   32.2586    7.6033 C   0  0  0  0  0  0  0  0  0  0  0  0
   -3.1050   32.7435    8.1269 C   0  0  0  0  0  0  0  0  0  0  0  0
   -2.8245   31.7888    9.2911 C   0  0  0  0  0  0  0  0  0  0  0  0
   -3.3573   30.4579    8.7554 C   0  0  0  0  0  0  0  0  0  0  0  0
   -6.1960   31.2231    6.1750 H   0  0  0  0  0  0  0  0  0  0  0  0
   -7.3679   29.4879    6.1044 C   0  0  0  0  0  0  0  0  0  0  0  0
   -5.6297   26.5471    3.5195 C   0  0  0  0  0  0  0  0  0  0  0  0
   -5.6771   27.8807    3.1068 C   0  0  0  0  0  0  0  0  0  0  0  0
   -6.2326   28.8523    3.9389 C   0  0  0  0  0  0  0  0  0  0  0  0
   -6.7404   28.4849    5.1817 C   0  0  0  0  0  0  0  0  0  0  0  0
   -6.6677   27.1404    5.5131 C   0  0  0  0  0  0  0  0  0  0  0  0
   -6.1364   26.1823    4.7175 N   0  0  0  0  0  0  0  0  0  0  0  0
   -5.8253   22.0076    0.6395 C   0  0  0  0  0  0  0  0  0  0  0  0
   -5.9959   22.8348    1.8304 N   0  0  0  0  0  0  0  0  0  0  0  0
   -6.7224   24.0934    1.5276 C   0  0  0  0  0  0  0  0  0  0  0  0
   -5.8195   25.3409    1.4165 C   0  0  0  0  0  0  0  0  0  0  0  0
   -5.0644   25.5790    2.6662 N   0  0  0  0  0  0  0  0  0  0  0  0
   -4.7063   24.3402    3.4014 C   0  0  0  0  0  0  0  0  0  0  0  0
   -4.6853   23.1126    2.4618 C   0  0  0  0  0  0  0  0  0  0  0  0
   -1.3470   31.7582    9.6810 C   0  0  0  0  0  0  0  0  0  0  0  0
   -0.5405   30.8123    8.8262 C   0  0  0  0  0  0  0  0  0  0  0  0
    0.4891   30.0482    9.3921 C   0  0  0  0  0  0  0  0  0  0  0  0
    1.2257   29.1606    8.6064 C   0  0  0  0  0  0  0  0  0  0  0  0
    0.9389   29.0265    7.2496 C   0  0  0  0  0  0  0  0  0  0  0  0
   -0.0844   29.7795    6.6773 C   0  0  0  0  0  0  0  0  0  0  0  0
   -0.8215   30.6685    7.4611 C   0  0  0  0  0  0  0  0  0  0  0  0
 17 18  1  0  0  0
 18 19  1  0  0  0
 19 20  1  0  0  0
 20 21  1  0  0  0
 21 11  1  0  0  0
 11 12  2  0  0  0
 12 13  1  0  0  0
 13 14  2  0  0  0
 14 10  1  0  0  0
 10  1  1  0  0  0
  1  2  1  0  0  0
  2  3  2  0  0  0
  2  4  1  0  0  0
  4  5  1  0  0  0
  5  6  1  0  0  0
  6  7  1  0  0  0
  7 24  1  0  0  0
 24 25  1  0  0  0
 25 26  2  0  0  0
 26 27  1  0  0  0
 27 28  2  0  0  0
 28 29  1  0  0  0
 29 30  2  0  0  0
  7  8  1  0  0  0
 14 15  1  0  0  0
 15 16  2  0  0  0
 21 22  1  0  0  0
 22 23  1  0  0  0
 23 18  1  0  0  0
 16 11  1  0  0  0
  8  4  1  0  0  0
 30 25  1  0  0  0
  1  9  1  0  0  0
M  END
> <minimizedAffinity>
-10.14997

$$$$
OCNT-2311020


 28 30  0  0  0  0  0  0  0  0999 V2000
   -5.2918   27.3996    5.3148 N   0  0  0  0  0  0  0  0  0  0  0  0
   -6.1341   28.5685    5.0553 C   0  0  0  0  0  0  0  0  0  0  0  0
   -6.1836   29.4566    6.2990 C   0  0  0  0  0  0  0  0  0  0  0  0
   -4.8137   29.6267    6.9727 C   0  0  0  0  0  0  0  0  0  0  0  0
   -3.6770   29.1209    6.0899 C   0  0  0  0  0  0  0  0  0  0  0  0
   -3.9002   27.6595    5.7058 C   0  0  0  0  0  0  0  0  0  0  0  0
   -5.7578   24.2955    2.5427 C   0  0  0  0  0  0  0  0  0  0  0  0
   -5.7420   24.0014    3.9023 C   0  0  0  0  0  0  0  0  0  0  0  0
   -5.5826   25.0415    4.8226 C   0  0  0  0  0  0  0  0  0  0  0  0
   -5.4426   26.3610    4.3821 C   0  0  0  0  0  0  0  0  0  0  0  0
   -5.4808   26.6481    3.0631 N   0  0  0  0  0  0  0  0  0  0  0  0
   -5.6413   25.6279    2.1800 C   0  0  0  0  0  0  0  0  0  0  0  0
   -6.6547   23.6502    0.3678 N   0  0  0  0  0  0  0  0  0  0  0  0
   -5.9217   23.2779    1.4774 C   0  0  0  0  0  0  0  0  0  0  0  0
   -5.4391   22.1605    1.6217 O   0  0  0  0  0  0  0  0  0  0  0  0
   -7.1909   24.5058    0.3861 H   0  0  0  0  0  0  0  0  0  0  0  0
   -8.4041   22.2983   -0.7030 C   0  0  0  0  0  0  0  0  0  0  0  0
   -6.9420   22.7077   -0.6948 C   0  0  0  0  0  0  0  0  0  0  0  0
   -4.5796   31.0173    7.3525 N   0  0  0  0  0  0  0  0  0  0  0  0
   -5.2190   31.5852    8.4448 C   0  0  0  0  0  0  0  0  0  0  0  0
   -5.9189   30.9054    9.1922 O   0  0  0  0  0  0  0  0  0  0  0  0
   -4.2267   31.6432    6.6433 H   0  0  0  0  0  0  0  0  0  0  0  0
   -5.0015   33.0195    8.6015 C   0  0  0  0  0  0  0  0  0  0  0  0
   -4.7625   33.9982    7.6518 C   0  0  0  0  0  0  0  0  0  0  0  0
   -4.6077   35.2951    8.2257 C   0  0  0  0  0  0  0  0  0  0  0  0
   -4.7241   35.2744    9.5983 C   0  0  0  0  0  0  0  0  0  0  0  0
   -4.6235   36.4105   10.5572 C   0  0  0  0  0  0  0  0  0  0  0  0
   -5.0126   33.6938   10.1803 S   0  0  0  0  0  0  0  0  0  0  0  0
 17 18  1  0  0  0
 18 13  1  0  0  0
 13 14  1  0  0  0
 14 15  2  0  0  0
 14  7  1  0  0  0
  7  8  2  0  0  0
  8  9  1  0  0  0
  9 10  2  0  0  0
 10  1  1  0  0  0
  1  2  1  0  0  0
  2  3  1  0  0  0
  3  4  1  0  0  0
  4 19  1  0  0  0
 19 20  1  0  0  0
 20 21  2  0  0  0
 20 23  1  0  0  0
 23 24  2  0  0  0
 24 25  1  0  0  0
 25 26  2  0  0  0
 26 27  1  0  0  0
 26 28  1  0  0  0
  4  5  1  0  0  0
  5  6  1  0  0  0
 10 11  1  0  0  0
 11 12  2  0  0  0
 12  7  1  0  0  0
  6  1  1  0  0  0
 28 23  1  0  0  0
 13 16  1  0  0  0
 19 22  1  0  0  0
M  END
> <minimizedAffinity>
-5.53580

$$$$
OCNT-2311052


 24 26  0  0  0  0  0  0  0  0999 V2000
   -2.8067   27.3469    6.0271 C   0  0  0  0  0  0  0  0  0  0  0  0
   -2.2951   26.2936    6.3963 O   0  0  0  0  0  0  0  0  0  0  0  0
   -3.7579   27.5025    5.0411 N   0  0  0  0  0  0  0  0  0  0  0  0
   -4.0950   28.4252    4.8090 H   0  0  0  0  0  0  0  0  0  0  0  0
   -4.3829   26.5196    4.3219 C   0  0  0  0  0  0  0  0  0  0  0  0
   -4.0162   26.2658    3.0836 N   0  0  0  0  0  0  0  0  0  0  0  0
   -4.8109   25.2605    2.5741 C   0  0  0  0  0  0  0  0  0  0  0  0
   -5.7699   24.7750    3.4386 C   0  0  0  0  0  0  0  0  0  0  0  0
   -6.7442   23.6925    3.1265 C   0  0  0  0  0  0  0  0  0  0  0  0
   -6.8235   23.4841    1.6033 C   0  0  0  0  0  0  0  0  0  0  0  0
   -5.4317   23.4656    0.9438 C   0  0  0  0  0  0  0  0  0  0  0  0
   -4.6641   24.7815    1.1696 C   0  0  0  0  0  0  0  0  0  0  0  0
   -5.6710   25.5802    4.9333 S   0  0  0  0  0  0  0  0  0  0  0  0
   -2.4118   28.6909    6.6650 C   0  0  0  0  0  0  0  0  0  0  0  0
   -3.2424   31.5161    9.0321 C   0  0  0  0  0  0  0  0  0  0  0  0
   -2.3142   31.9395   10.1882 C   0  0  0  0  0  0  0  0  0  0  0  0
   -2.4743   31.6665    7.6981 C   0  0  0  0  0  0  0  0  0  0  0  0
   -3.2180   31.0272    6.5219 C   0  0  0  0  0  0  0  0  0  0  0  0
   -3.5603   29.6159    6.7376 N   0  0  0  0  0  0  0  0  0  0  0  0
   -4.3217   29.4385    7.9797 C   0  0  0  0  0  0  0  0  0  0  0  0
   -3.6376   30.0327    9.2171 C   0  0  0  0  0  0  0  0  0  0  0  0
   -4.5092   32.4106    9.0573 C   0  0  0  0  0  0  0  0  0  0  0  0
   -4.8940   34.6089    8.2918 C   0  0  0  0  0  0  0  0  0  0  0  0
   -4.1376   33.7859    9.1687 O   0  0  0  0  0  0  0  0  0  0  0  0
 23 24  1  0  0  0
 24 22  1  0  0  0
 22 15  1  0  0  0
 15 16  1  0  0  0
 15 17  1  0  0  0
 17 18  1  0  0  0
 18 19  1  0  0  0
 19 14  1  0  0  0
 14  1  1  0  0  0
  1  2  2  0  0  0
  1  3  1  0  0  0
  3  5  1  0  0  0
  5  6  2  0  0  0
  6  7  1  0  0  0
  7  8  2  0  0  0
  8  9  1  0  0  0
  9 10  1  0  0  0
 10 11  1  0  0  0
 11 12  1  0  0  0
  8 13  1  0  0  0
 19 20  1  0  0  0
 20 21  1  0  0  0
 21 15  1  0  0  0
 13  5  1  0  0  0
 12  7  1  0  0  0
  3  4  1  0  0  0
M  END
> <minimizedAffinity>
-8.31976

$$$$
OCNT-2311059


 29 33  0  0  0  0  0  0  0  0999 V2000
   -6.5395   30.1264    4.4842 O   0  0  0  0  0  0  0  0  0  0  0  0
   -5.7684   29.1803    4.4365 C   0  0  0  0  0  0  0  0  0  0  0  0
   -5.5748   28.4859    3.2583 N   0  0  0  0  0  0  0  0  0  0  0  0
   -4.8615   27.2558    3.4555 C   0  0  0  0  0  0  0  0  0  0  0  0
   -4.6029   27.3316    4.9662 C   0  0  0  0  0  0  0  0  0  0  0  0
   -4.0342   26.4453    5.5957 O   0  0  0  0  0  0  0  0  0  0  0  0
   -5.0914   28.5272    5.4395 N   0  0  0  0  0  0  0  0  0  0  0  0
   -6.0402   28.7916    2.4144 H   0  0  0  0  0  0  0  0  0  0  0  0
   -5.0429   28.9581    6.7928 C   0  0  0  0  0  0  0  0  0  0  0  0
   -6.1771   28.7888    7.6097 C   0  0  0  0  0  0  0  0  0  0  0  0
   -6.1862   29.2458    8.9233 C   0  0  0  0  0  0  0  0  0  0  0  0
   -5.0555   29.8629    9.4411 C   0  0  0  0  0  0  0  0  0  0  0  0
   -3.8998   29.9991    8.6579 C   0  0  0  0  0  0  0  0  0  0  0  0
   -2.7454   30.5824    9.1986 C   0  0  0  0  0  0  0  0  0  0  0  0
   -1.5903   30.6744    8.4363 C   0  0  0  0  0  0  0  0  0  0  0  0
   -1.6252   30.1620    7.1580 C   0  0  0  0  0  0  0  0  0  0  0  0
   -2.7174   29.5884    6.6100 N   0  0  0  0  0  0  0  0  0  0  0  0
   -3.8679   29.5339    7.3209 C   0  0  0  0  0  0  0  0  0  0  0  0
   -5.6917   26.0214    3.1038 C   0  0  0  0  0  0  0  0  0  0  0  0
   -4.9544   24.9178    2.3029 C   0  0  0  0  0  0  0  0  0  0  0  0
   -4.1925   23.9280    3.2063 C   0  0  0  0  0  0  0  0  0  0  0  0
   -4.9816   22.6654    3.5270 C   0  0  0  0  0  0  0  0  0  0  0  0
   -5.3763   21.9424    2.2474 C   0  0  0  0  0  0  0  0  0  0  0  0
   -6.0542   22.8537    1.2577 C   0  0  0  0  0  0  0  0  0  0  0  0
   -6.8716   22.2801    0.2698 C   0  0  0  0  0  0  0  0  0  0  0  0
   -7.4825   23.0726   -0.6994 C   0  0  0  0  0  0  0  0  0  0  0  0
   -7.2695   24.4456   -0.7032 C   0  0  0  0  0  0  0  0  0  0  0  0
   -6.4485   25.0257    0.2641 C   0  0  0  0  0  0  0  0  0  0  0  0
   -5.8364   24.2447    1.2612 C   0  0  0  0  0  0  0  0  0  0  0  0
  1  2  2  0  0  0
  2  3  1  0  0  0
  3  4  1  0  0  0
  4 19  1  0  0  0
 19 20  1  0  0  0
 20 21  1  0  0  0
 21 22  1  0  0  0
 22 23  1  0  0  0
 23 24  1  0  0  0
 24 25  2  0  0  0
 25 26  1  0  0  0
 26 27  2  0  0  0
 27 28  1  0  0  0
 28 29  2  0  0  0
  4  5  1  0  0  0
  5  6  2  0  0  0
  5  7  1  0  0  0
  7  9  1  0  0  0
  9 10  1  0  0  0
 10 11  2  0  0  0
 11 12  1  0  0  0
 12 13  2  0  0  0
 13 14  1  0  0  0
 14 15  2  0  0  0
 15 16  1  0  0  0
 16 17  2  0  0  0
 17 18  1  0  0  0
  7  2  1  0  0  0
 18  9  2  0  0  0
 29 20  1  0  0  0
 18 13  1  0  0  0
 29 24  1  0  0  0
  3  8  1  0  0  0
M  END
> <minimizedAffinity>
-11.45445

$$$$
OCNT-2311083


 29 31  0  0  0  0  0  0  0  0999 V2000
   -2.6502   27.2571    6.4519 N   0  0  0  0  0  0  0  0  0  0  0  0
   -1.3378   27.4775    6.8139 C   0  0  0  0  0  0  0  0  0  0  0  0
   -0.4075   26.7559    6.4740 O   0  0  0  0  0  0  0  0  0  0  0  0
   -3.3170   27.9757    6.7229 H   0  0  0  0  0  0  0  0  0  0  0  0
   -1.1268   28.6968    7.6595 C   0  0  0  0  0  0  0  0  0  0  0  0
    0.0946   28.9006    8.2829 C   0  0  0  0  0  0  0  0  0  0  0  0
    0.2460   30.0463    9.0515 C   0  0  0  0  0  0  0  0  0  0  0  0
   -0.8193   30.9399    9.1665 C   0  0  0  0  0  0  0  0  0  0  0  0
   -2.0176   30.6661    8.5064 C   0  0  0  0  0  0  0  0  0  0  0  0
   -2.1854   29.5505    7.7531 N   0  0  0  0  0  0  0  0  0  0  0  0
   -3.2100   31.5339    8.5560 C   0  0  0  0  0  0  0  0  0  0  0  0
   -3.3332   32.7810    9.1525 C   0  0  0  0  0  0  0  0  0  0  0  0
   -4.6341   33.3459    9.0170 C   0  0  0  0  0  0  0  0  0  0  0  0
   -5.4801   32.5158    8.3208 C   0  0  0  0  0  0  0  0  0  0  0  0
   -4.7059   31.0725    7.8401 S   0  0  0  0  0  0  0  0  0  0  0  0
   -3.0364   26.1975    5.5481 C   0  0  0  0  0  0  0  0  0  0  0  0
   -2.5321   26.4261    4.1221 C   0  0  0  0  0  0  0  0  0  0  0  0
   -3.5894   24.2123    2.7760 O   0  0  0  0  0  0  0  0  0  0  0  0
   -4.0936   25.3129    2.6109 C   0  0  0  0  0  0  0  0  0  0  0  0
   -3.6245   26.4793    3.1650 N   0  0  0  0  0  0  0  0  0  0  0  0
   -5.2059   25.5566    1.8428 N   0  0  0  0  0  0  0  0  0  0  0  0
   -4.3673   27.1249    3.3936 H   0  0  0  0  0  0  0  0  0  0  0  0
   -5.2250   26.4781    1.4310 H   0  0  0  0  0  0  0  0  0  0  0  0
   -5.8285   24.4861    1.0758 C   0  0  0  0  0  0  0  0  0  0  0  0
   -6.5999   25.0440   -0.1345 C   0  0  0  0  0  0  0  0  0  0  0  0
   -7.7647   24.1566   -0.5809 C   0  0  0  0  0  0  0  0  0  0  0  0
   -7.5121   22.6882   -0.2702 C   0  0  0  0  0  0  0  0  0  0  0  0
   -7.3285   22.4483    1.2293 C   0  0  0  0  0  0  0  0  0  0  0  0
   -6.7391   23.6482    1.9739 C   0  0  0  0  0  0  0  0  0  0  0  0
 18 19  2  0  0  0
 19 20  1  0  0  0
 20 17  1  0  0  0
 17 16  1  0  0  0
 16  1  1  0  0  0
  1  2  1  0  0  0
  2  3  2  0  0  0
  2  5  1  0  0  0
  5  6  1  0  0  0
  6  7  2  0  0  0
  7  8  1  0  0  0
  8  9  2  0  0  0
  9 11  1  0  0  0
 11 12  2  0  0  0
 12 13  1  0  0  0
 13 14  2  0  0  0
 14 15  1  0  0  0
  9 10  1  0  0  0
 19 21  1  0  0  0
 21 24  1  0  0  0
 24 25  1  0  0  0
 25 26  1  0  0  0
 26 27  1  0  0  0
 27 28  1  0  0  0
 28 29  1  0  0  0
 10  5  2  0  0  0
 29 24  1  0  0  0
 15 11  1  0  0  0
 20 22  1  0  0  0
  1  4  1  0  0  0
 21 23  1  0  0  0
M  END
> <minimizedAffinity>
-9.80771

$$$$
OCNT-2311090


 26 30  0  0  0  0  0  0  0  0999 V2000
   -5.6646   24.5655    3.0739 N   0  0  0  0  0  0  0  0  0  0  0  0
   -6.3568   24.2448    4.2090 N   0  0  0  0  0  0  0  0  0  0  0  0
   -5.6896   24.6808    5.2706 N   0  0  0  0  0  0  0  0  0  0  0  0
   -4.5473   25.2554    4.8235 C   0  0  0  0  0  0  0  0  0  0  0  0
   -4.4808   25.1646    3.4511 C   0  0  0  0  0  0  0  0  0  0  0  0
   -3.3197   25.6531    2.6737 C   0  0  0  0  0  0  0  0  0  0  0  0
   -2.1373   25.9528    3.6433 C   0  0  0  0  0  0  0  0  0  0  0  0
   -2.5655   26.6742    4.8701 N   0  0  0  0  0  0  0  0  0  0  0  0
   -3.4850   25.8294    5.6911 C   0  0  0  0  0  0  0  0  0  0  0  0
   -7.3070   23.5763   -0.7022 C   0  0  0  0  0  0  0  0  0  0  0  0
   -6.7486   24.8366   -0.5029 C   0  0  0  0  0  0  0  0  0  0  0  0
   -6.2028   25.1819    0.7390 C   0  0  0  0  0  0  0  0  0  0  0  0
   -6.2082   24.2617    1.7935 C   0  0  0  0  0  0  0  0  0  0  0  0
   -6.7852   22.9961    1.5835 C   0  0  0  0  0  0  0  0  0  0  0  0
   -7.3278   22.6566    0.3417 C   0  0  0  0  0  0  0  0  0  0  0  0
   -1.4193   27.0866    5.7032 C   0  0  0  0  0  0  0  0  0  0  0  0
   -1.7048   26.9948    7.2118 C   0  0  0  0  0  0  0  0  0  0  0  0
   -1.6257   28.3524    7.8734 C   0  0  0  0  0  0  0  0  0  0  0  0
   -0.3685   28.9430    8.1295 C   0  0  0  0  0  0  0  0  0  0  0  0
   -0.2746   30.1843    8.7641 C   0  0  0  0  0  0  0  0  0  0  0  0
   -1.4462   30.8143    9.1247 C   0  0  0  0  0  0  0  0  0  0  0  0
   -1.5078   32.0273    9.7601 O   0  0  0  0  0  0  0  0  0  0  0  0
   -2.9069   32.3865    9.6685 C   0  0  0  0  0  0  0  0  0  0  0  0
   -3.7381   31.1209    9.4523 C   0  0  0  0  0  0  0  0  0  0  0  0
   -2.6872   30.2465    8.8871 C   0  0  0  0  0  0  0  0  0  0  0  0
   -2.8000   29.0132    8.2697 C   0  0  0  0  0  0  0  0  0  0  0  0
 10 11  2  0  0  0
 11 12  1  0  0  0
 12 13  2  0  0  0
 13  1  1  0  0  0
  1  2  1  0  0  0
  2  3  2  0  0  0
  3  4  1  0  0  0
  4  5  2  0  0  0
  5  6  1  0  0  0
  6  7  1  0  0  0
  7  8  1  0  0  0
  8 16  1  0  0  0
 16 17  1  0  0  0
 17 18  1  0  0  0
 18 19  1  0  0  0
 19 20  2  0  0  0
 20 21  1  0  0  0
 21 22  1  0  0  0
 22 23  1  0  0  0
 23 24  1  0  0  0
 24 25  1  0  0  0
 25 26  1  0  0  0
  8  9  1  0  0  0
 13 14  1  0  0  0
 14 15  2  0  0  0
 15 10  1  0  0  0
  5  1  1  0  0  0
 26 18  2  0  0  0
  9  4  1  0  0  0
 25 21  2  0  0  0
M  END
> <minimizedAffinity>
-10.23653

$$$$
OCNT-2311091


 24 26  0  0  0  0  0  0  0  0999 V2000
   -4.0292   26.2834    4.0137 C   0  0  0  0  0  0  0  0  0  0  0  0
   -5.0579   25.4440    3.6435 C   0  0  0  0  0  0  0  0  0  0  0  0
   -6.4278   24.7733    4.7408 Br  0  0  0  0  0  0  0  0  0  0  0  0
   -4.8930   25.1779    2.2574 C   0  0  0  0  0  0  0  0  0  0  0  0
   -3.8358   25.8610    1.7827 N   0  0  0  0  0  0  0  0  0  0  0  0
   -3.3588   26.5195    2.8466 N   0  0  0  0  0  0  0  0  0  0  0  0
   -2.5722   27.1434    2.7035 H   0  0  0  0  0  0  0  0  0  0  0  0
   -5.6821   24.3309    1.3655 C   0  0  0  0  0  0  0  0  0  0  0  0
   -5.6105   22.9338    1.4417 C   0  0  0  0  0  0  0  0  0  0  0  0
   -6.3718   22.1388    0.5808 C   0  0  0  0  0  0  0  0  0  0  0  0
   -7.2030   22.7330   -0.3675 C   0  0  0  0  0  0  0  0  0  0  0  0
   -7.2702   24.1218   -0.4620 C   0  0  0  0  0  0  0  0  0  0  0  0
   -6.5101   24.9176    0.3980 C   0  0  0  0  0  0  0  0  0  0  0  0
   -4.2811   27.8571    5.7416 O   0  0  0  0  0  0  0  0  0  0  0  0
   -3.7045   26.8788    5.2807 C   0  0  0  0  0  0  0  0  0  0  0  0
   -2.6826   26.2451    5.9614 N   0  0  0  0  0  0  0  0  0  0  0  0
   -2.4644   25.2914    5.7113 H   0  0  0  0  0  0  0  0  0  0  0  0
   -2.3395   26.6440    7.3107 C   0  0  0  0  0  0  0  0  0  0  0  0
   -1.2442   27.6690    7.3104 C   0  0  0  0  0  0  0  0  0  0  0  0
   -1.0439   28.5306    8.3934 C   0  0  0  0  0  0  0  0  0  0  0  0
   -0.0270   29.4799    8.3411 C   0  0  0  0  0  0  0  0  0  0  0  0
    0.7557   29.5412    7.2006 C   0  0  0  0  0  0  0  0  0  0  0  0
    0.5873   28.7338    6.1330 N   0  0  0  0  0  0  0  0  0  0  0  0
   -0.4073   27.8200    6.2083 C   0  0  0  0  0  0  0  0  0  0  0  0
 14 15  2  0  0  0
 15 16  1  0  0  0
 16 18  1  0  0  0
 18 19  1  0  0  0
 19 20  1  0  0  0
 20 21  2  0  0  0
 21 22  1  0  0  0
 22 23  2  0  0  0
 23 24  1  0  0  0
 15  1  1  0  0  0
  1  2  2  0  0  0
  2  3  1  0  0  0
  2  4  1  0  0  0
  4  8  1  0  0  0
  8  9  2  0  0  0
  9 10  1  0  0  0
 10 11  2  0  0  0
 11 12  1  0  0  0
 12 13  2  0  0  0
  4  5  2  0  0  0
  5  6  1  0  0  0
 24 19  2  0  0  0
  6  1  1  0  0  0
 13  8  1  0  0  0
 16 17  1  0  0  0
  6  7  1  0  0  0
M  END
> <minimizedAffinity>
-8.87398

$$$$
OCNT-2311092


 24 26  0  0  0  0  0  0  0  0999 V2000
   -3.8904   25.1769    3.0877 N   0  0  0  0  0  0  0  0  0  0  0  0
   -4.1409   25.6550    4.3614 C   0  0  0  0  0  0  0  0  0  0  0  0
   -5.2091   25.5814    4.9558 O   0  0  0  0  0  0  0  0  0  0  0  0
   -2.9583   25.3106    2.7272 H   0  0  0  0  0  0  0  0  0  0  0  0
   -6.0638   22.5880    1.4419 C   0  0  0  0  0  0  0  0  0  0  0  0
   -5.1599   23.1749    2.3455 C   0  0  0  0  0  0  0  0  0  0  0  0
   -4.7876   24.5179    2.2202 C   0  0  0  0  0  0  0  0  0  0  0  0
   -5.3276   25.2759    1.1712 C   0  0  0  0  0  0  0  0  0  0  0  0
   -6.2198   24.7010    0.2644 C   0  0  0  0  0  0  0  0  0  0  0  0
   -6.5778   23.3664    0.4043 C   0  0  0  0  0  0  0  0  0  0  0  0
   -7.4299   22.8292   -0.4800 F   0  0  0  0  0  0  0  0  0  0  0  0
   -7.3330   20.8935    2.7845 C   0  0  0  0  0  0  0  0  0  0  0  0
   -6.4452   21.1371    1.5737 C   0  0  0  0  0  0  0  0  0  0  0  0
   -2.9961   26.2928    5.0039 C   0  0  0  0  0  0  0  0  0  0  0  0
   -2.9384   27.2470    6.0047 C   0  0  0  0  0  0  0  0  0  0  0  0
   -1.6034   27.5128    6.2517 N   0  0  0  0  0  0  0  0  0  0  0  0
   -0.8022   26.7702    5.4524 N   0  0  0  0  0  0  0  0  0  0  0  0
   -1.6388   26.0453    4.7111 C   0  0  0  0  0  0  0  0  0  0  0  0
   -1.0534   28.4192    7.1904 C   0  0  0  0  0  0  0  0  0  0  0  0
    0.3224   28.5241    7.4143 C   0  0  0  0  0  0  0  0  0  0  0  0
    0.7918   29.4403    8.3555 C   0  0  0  0  0  0  0  0  0  0  0  0
   -0.1281   30.2182    9.0392 C   0  0  0  0  0  0  0  0  0  0  0  0
   -1.4608   30.1412    8.8466 N   0  0  0  0  0  0  0  0  0  0  0  0
   -1.8976   29.2444    7.9272 C   0  0  0  0  0  0  0  0  0  0  0  0
 12 13  1  0  0  0
 13  5  1  0  0  0
  5  6  1  0  0  0
  6  7  2  0  0  0
  7  1  1  0  0  0
  1  2  1  0  0  0
  2  3  2  0  0  0
  2 14  1  0  0  0
 14 15  2  0  0  0
 15 16  1  0  0  0
 16 19  1  0  0  0
 19 20  1  0  0  0
 20 21  2  0  0  0
 21 22  1  0  0  0
 22 23  2  0  0  0
 23 24  1  0  0  0
 16 17  1  0  0  0
 17 18  2  0  0  0
  7  8  1  0  0  0
  8  9  2  0  0  0
  9 10  1  0  0  0
 10 11  1  0  0  0
 10  5  2  0  0  0
 18 14  1  0  0  0
 24 19  2  0  0  0
  1  4  1  0  0  0
M  END
> <minimizedAffinity>
-9.05419

$$$$
OCNT-2311094


 24 26  0  0  0  0  0  0  0  0999 V2000
   -2.9295   27.8107    7.1342 N   0  0  0  0  0  0  0  0  0  0  0  0
   -3.6401   27.2974    7.6473 H   0  0  0  0  0  0  0  0  0  0  0  0
    0.1791   25.7290    4.1296 C   0  0  0  0  0  0  0  0  0  0  0  0
   -1.2191   26.1555    4.4485 C   0  0  0  0  0  0  0  0  0  0  0  0
   -1.4331   26.7532    5.6319 N   0  0  0  0  0  0  0  0  0  0  0  0
   -2.6843   27.1566    5.9114 C   0  0  0  0  0  0  0  0  0  0  0  0
   -3.7317   26.9845    5.0088 C   0  0  0  0  0  0  0  0  0  0  0  0
   -5.1180   27.5088    5.2758 C   0  0  0  0  0  0  0  0  0  0  0  0
   -6.1774   26.9721    4.3128 C   0  0  0  0  0  0  0  0  0  0  0  0
   -5.6714   27.0170    2.8780 C   0  0  0  0  0  0  0  0  0  0  0  0
   -4.4388   26.1304    2.7348 C   0  0  0  0  0  0  0  0  0  0  0  0
   -3.4031   26.3826    3.7996 C   0  0  0  0  0  0  0  0  0  0  0  0
   -2.1584   25.9516    3.5146 N   0  0  0  0  0  0  0  0  0  0  0  0
   -1.7403   28.0347    7.9550 C   0  0  0  0  0  0  0  0  0  0  0  0
   -1.7320   29.4530    8.4759 C   0  0  0  0  0  0  0  0  0  0  0  0
   -2.9356   30.1841    8.5002 C   0  0  0  0  0  0  0  0  0  0  0  0
   -2.9421   31.4957    8.9492 C   0  0  0  0  0  0  0  0  0  0  0  0
   -4.5398   32.4910    9.0049 Br  0  0  0  0  0  0  0  0  0  0  0  0
   -1.7432   32.0475    9.3511 C   0  0  0  0  0  0  0  0  0  0  0  0
   -0.5665   31.3799    9.3250 N   0  0  0  0  0  0  0  0  0  0  0  0
   -0.5630   30.1063    8.8858 C   0  0  0  0  0  0  0  0  0  0  0  0
    0.6860   29.4872    8.8678 N   0  0  0  0  0  0  0  0  0  0  0  0
    0.9362   29.2058    7.9257 H   0  0  0  0  0  0  0  0  0  0  0  0
    0.6967   28.6731    9.4726 H   0  0  0  0  0  0  0  0  0  0  0  0
  3  4  1  0  0  0
  4  5  2  0  0  0
  5  6  1  0  0  0
  6  1  1  0  0  0
  1 14  1  0  0  0
 14 15  1  0  0  0
 15 16  1  0  0  0
 16 17  2  0  0  0
 17 18  1  0  0  0
 17 19  1  0  0  0
 19 20  2  0  0  0
 20 21  1  0  0  0
 21 22  1  0  0  0
  6  7  2  0  0  0
  7  8  1  0  0  0
  8  9  1  0  0  0
  9 10  1  0  0  0
 10 11  1  0  0  0
 11 12  1  0  0  0
 12 13  2  0  0  0
 13  4  1  0  0  0
 21 15  2  0  0  0
 12  7  1  0  0  0
  1  2  1  0  0  0
 22 23  1  0  0  0
 22 24  1  0  0  0
M  END
> <minimizedAffinity>
-8.89617

$$$$
OCNT-2311101


 26 28  0  0  0  0  0  0  0  0999 V2000
   -5.8403   24.0912    3.4152 C   0  0  0  0  0  0  0  0  0  0  0  0
   -6.5729   23.3178    4.5036 C   0  0  0  0  0  0  0  0  0  0  0  0
   -5.8811   22.9227    5.6609 C   0  0  0  0  0  0  0  0  0  0  0  0
   -6.5320   22.2270    6.6822 C   0  0  0  0  0  0  0  0  0  0  0  0
   -7.8871   21.9238    6.5658 C   0  0  0  0  0  0  0  0  0  0  0  0
   -8.5870   22.3239    5.4306 C   0  0  0  0  0  0  0  0  0  0  0  0
  -10.2635   21.9612    5.2891 Cl  0  0  0  0  0  0  0  0  0  0  0  0
   -7.9426   23.0197    4.4068 C   0  0  0  0  0  0  0  0  0  0  0  0
   -6.5287   24.0360    2.0220 C   0  0  0  0  0  0  0  0  0  0  0  0
   -6.1798   22.7550    1.2464 C   0  0  0  0  0  0  0  0  0  0  0  0
   -6.9577   22.6506   -0.0693 C   0  0  0  0  0  0  0  0  0  0  0  0
   -7.3186   24.0047   -0.6781 C   0  0  0  0  0  0  0  0  0  0  0  0
   -6.2828   25.0638   -0.3369 C   0  0  0  0  0  0  0  0  0  0  0  0
   -6.1545   25.2766    1.1739 C   0  0  0  0  0  0  0  0  0  0  0  0
   -4.4627   25.9782    4.2352 C   0  0  0  0  0  0  0  0  0  0  0  0
   -3.3778   25.4432    4.0682 O   0  0  0  0  0  0  0  0  0  0  0  0
   -5.6829   25.4650    3.8605 N   0  0  0  0  0  0  0  0  0  0  0  0
   -6.4924   25.9696    4.2099 H   0  0  0  0  0  0  0  0  0  0  0  0
   -4.8458   30.8894    6.6932 O   0  0  0  0  0  0  0  0  0  0  0  0
   -4.7763   29.7999    6.1374 C   0  0  0  0  0  0  0  0  0  0  0  0
   -5.8444   29.3476    5.2241 C   0  0  0  0  0  0  0  0  0  0  0  0
   -5.7586   28.1577    4.6247 C   0  0  0  0  0  0  0  0  0  0  0  0
   -4.5612   27.3435    4.9232 C   0  0  0  0  0  0  0  0  0  0  0  0
   -3.5959   27.7022    5.7209 N   0  0  0  0  0  0  0  0  0  0  0  0
   -3.7277   28.9307    6.3129 N   0  0  0  0  0  0  0  0  0  0  0  0
   -2.9812   29.2246    6.9352 H   0  0  0  0  0  0  0  0  0  0  0  0
 19 20  2  0  0  0
 20 21  1  0  0  0
 21 22  2  0  0  0
 22 23  1  0  0  0
 23 15  1  0  0  0
 15 16  2  0  0  0
 15 17  1  0  0  0
 17  1  1  0  0  0
  1  2  1  0  0  0
  2  3  2  0  0  0
  3  4  1  0  0  0
  4  5  2  0  0  0
  5  6  1  0  0  0
  6  7  1  0  0  0
  6  8  2  0  0  0
  1  9  1  0  0  0
  9 10  1  0  0  0
 10 11  1  0  0  0
 11 12  1  0  0  0
 12 13  1  0  0  0
 13 14  1  0  0  0
 23 24  2  0  0  0
 24 25  1  0  0  0
 25 20  1  0  0  0
  8  2  1  0  0  0
 14  9  1  0  0  0
 17 18  1  0  0  0
 25 26  1  0  0  0
M  END
> <minimizedAffinity>
-9.20268

$$$$
OCNT-2311106


 25 28  0  0  0  0  0  0  0  0999 V2000
   -7.0796   23.0174    2.4296 C   0  0  0  0  0  0  0  0  0  0  0  0
   -6.0574   23.6306    3.2858 N   0  0  0  0  0  0  0  0  0  0  0  0
   -5.1956   24.5420    2.5007 C   0  0  0  0  0  0  0  0  0  0  0  0
   -5.6493   26.0099    2.4786 C   0  0  0  0  0  0  0  0  0  0  0  0
   -5.7496   26.5708    3.8233 N   0  0  0  0  0  0  0  0  0  0  0  0
   -5.8272   27.9510    3.9517 C   0  0  0  0  0  0  0  0  0  0  0  0
   -5.8809   28.7173    2.9934 O   0  0  0  0  0  0  0  0  0  0  0  0
   -5.9545   25.6029    4.9152 C   0  0  0  0  0  0  0  0  0  0  0  0
   -6.7082   24.3281    4.4408 C   0  0  0  0  0  0  0  0  0  0  0  0
   -5.8590   28.5398    5.3001 C   0  0  0  0  0  0  0  0  0  0  0  0
   -7.0263   29.1985    5.7288 C   0  0  0  0  0  0  0  0  0  0  0  0
   -7.0865   29.7772    6.9978 C   0  0  0  0  0  0  0  0  0  0  0  0
   -5.9851   29.7238    7.8527 C   0  0  0  0  0  0  0  0  0  0  0  0
   -6.0500   30.2826    9.0674 F   0  0  0  0  0  0  0  0  0  0  0  0
   -4.8313   29.0894    7.3955 C   0  0  0  0  0  0  0  0  0  0  0  0
   -4.7263   28.4977    6.1388 C   0  0  0  0  0  0  0  0  0  0  0  0
   -3.3956   27.9989    6.0626 C   0  0  0  0  0  0  0  0  0  0  0  0
   -2.7958   28.2975    7.2640 C   0  0  0  0  0  0  0  0  0  0  0  0
   -3.6594   28.9562    8.0789 O   0  0  0  0  0  0  0  0  0  0  0  0
   -6.8639   23.3951    5.6111 C   0  0  0  0  0  0  0  0  0  0  0  0
   -5.9356   22.6228    6.1416 N   0  0  0  0  0  0  0  0  0  0  0  0
   -6.5541   21.9495    7.1640 C   0  0  0  0  0  0  0  0  0  0  0  0
   -7.8758   22.3126    7.2584 C   0  0  0  0  0  0  0  0  0  0  0  0
   -8.0608   23.2306    6.2659 N   0  0  0  0  0  0  0  0  0  0  0  0
   -8.9052   23.7393    6.0366 H   0  0  0  0  0  0  0  0  0  0  0  0
  1  2  1  0  0  0
  2  3  1  0  0  0
  3  4  1  0  0  0
  4  5  1  0  0  0
  5  6  1  0  0  0
  6  7  2  0  0  0
  6 10  1  0  0  0
 10 11  1  0  0  0
 11 12  2  0  0  0
 12 13  1  0  0  0
 13 14  1  0  0  0
 13 15  2  0  0  0
 15 16  1  0  0  0
 16 17  1  0  0  0
 17 18  2  0  0  0
 18 19  1  0  0  0
  5  8  1  0  0  0
  8  9  1  0  0  0
  9 20  1  0  0  0
 20 21  2  0  0  0
 21 22  1  0  0  0
 22 23  2  0  0  0
 23 24  1  0  0  0
  9  2  1  0  0  0
 24 20  1  0  0  0
 16 10  2  0  0  0
 19 15  1  0  0  0
 24 25  1  0  0  0
M  END
> <minimizedAffinity>
-8.45756

$$$$
OCNT-2311111


 23 26  0  0  0  0  0  0  0  0999 V2000
   -2.5425   27.8323    6.3535 C   0  0  0  0  0  0  0  0  0  0  0  0
   -2.0334   26.6878    5.7102 C   0  0  0  0  0  0  0  0  0  0  0  0
   -2.8092   25.9171    4.8339 C   0  0  0  0  0  0  0  0  0  0  0  0
   -4.1399   26.2550    4.5664 C   0  0  0  0  0  0  0  0  0  0  0  0
   -4.6748   27.3749    5.2101 C   0  0  0  0  0  0  0  0  0  0  0  0
   -3.8920   28.1384    6.0844 C   0  0  0  0  0  0  0  0  0  0  0  0
   -4.9607   25.4444    3.6549 C   0  0  0  0  0  0  0  0  0  0  0  0
   -5.0806   25.8500    2.3112 C   0  0  0  0  0  0  0  0  0  0  0  0
   -5.8590   25.0979    1.4466 C   0  0  0  0  0  0  0  0  0  0  0  0
   -6.5264   23.9533    1.8737 C   0  0  0  0  0  0  0  0  0  0  0  0
   -6.4021   23.5085    3.1740 C   0  0  0  0  0  0  0  0  0  0  0  0
   -5.6280   24.2622    4.0672 C   0  0  0  0  0  0  0  0  0  0  0  0
   -5.5011   23.6700    5.6917 Cl  0  0  0  0  0  0  0  0  0  0  0  0
   -7.2019   23.2847    0.8254 N   0  0  0  0  0  0  0  0  0  0  0  0
   -7.2715   24.3138   -0.2279 C   0  0  0  0  0  0  0  0  0  0  0  0
   -6.1001   25.2900   -0.0113 C   0  0  0  0  0  0  0  0  0  0  0  0
   -8.1014   22.9203    1.1291 H   0  0  0  0  0  0  0  0  0  0  0  0
   -2.3705   28.8588    8.6436 O   0  0  0  0  0  0  0  0  0  0  0  0
   -1.6775   28.7302    7.3763 C   0  0  0  0  0  0  0  0  0  0  0  0
   -0.1499   28.3957    7.5481 C   0  0  0  0  0  0  0  0  0  0  0  0
    0.1544   29.4310    6.4549 C   0  0  0  0  0  0  0  0  0  0  0  0
   -1.1735   30.1134    6.8165 C   0  0  0  0  0  0  0  0  0  0  0  0
   -2.5836   27.9440    8.8948 H   0  0  0  0  0  0  0  0  0  0  0  0
 18 19  1  0  0  0
 19  1  1  0  0  0
  1  2  1  0  0  0
  2  3  2  0  0  0
  3  4  1  0  0  0
  4  7  1  0  0  0
  7  8  2  0  0  0
  8  9  1  0  0  0
  9 10  2  0  0  0
 10 11  1  0  0  0
 11 12  2  0  0  0
 12 13  1  0  0  0
 10 14  1  0  0  0
 14 15  1  0  0  0
 15 16  1  0  0  0
  4  5  2  0  0  0
  5  6  1  0  0  0
 19 20  1  0  0  0
 20 21  1  0  0  0
 21 22  1  0  0  0
 22 19  1  0  0  0
  6  1  2  0  0  0
 12  7  1  0  0  0
 16  9  1  0  0  0
 18 23  1  0  0  0
 14 17  1  0  0  0
M  END
> <minimizedAffinity>
-8.94579

$$$$
OCNT-2311113


 26 28  0  0  0  0  0  0  0  0999 V2000
   -6.3805   28.8550    6.8941 C   0  0  0  0  0  0  0  0  0  0  0  0
   -7.3556   29.8184    6.2302 C   0  0  0  0  0  0  0  0  0  0  0  0
   -5.7565   27.9327    5.8906 C   0  0  0  0  0  0  0  0  0  0  0  0
   -4.4558   27.9727    5.5714 N   0  0  0  0  0  0  0  0  0  0  0  0
   -4.3446   27.0039    4.5709 O   0  0  0  0  0  0  0  0  0  0  0  0
   -5.5918   26.4679    4.3980 C   0  0  0  0  0  0  0  0  0  0  0  0
   -6.4942   26.9998    5.1927 N   0  0  0  0  0  0  0  0  0  0  0  0
   -5.7357   25.4133    3.4008 C   0  0  0  0  0  0  0  0  0  0  0  0
   -5.4922   25.7035    2.0467 C   0  0  0  0  0  0  0  0  0  0  0  0
   -5.6228   24.7146    1.0693 C   0  0  0  0  0  0  0  0  0  0  0  0
   -5.9896   23.4226    1.4337 C   0  0  0  0  0  0  0  0  0  0  0  0
   -6.1445   22.2033    0.2283 Cl  0  0  0  0  0  0  0  0  0  0  0  0
   -6.2322   23.1123    2.7727 C   0  0  0  0  0  0  0  0  0  0  0  0
   -6.1067   24.1040    3.7503 C   0  0  0  0  0  0  0  0  0  0  0  0
   -5.0912   29.5207    8.9203 C   0  0  0  0  0  0  0  0  0  0  0  0
   -5.7513   28.8281    9.6897 O   0  0  0  0  0  0  0  0  0  0  0  0
   -5.3091   29.5710    7.5650 N   0  0  0  0  0  0  0  0  0  0  0  0
   -4.8007   30.2943    7.0551 H   0  0  0  0  0  0  0  0  0  0  0  0
   -0.1414   30.0432    8.3618 C   0  0  0  0  0  0  0  0  0  0  0  0
   -1.3732   30.5972    9.0727 C   0  0  0  0  0  0  0  0  0  0  0  0
   -1.6237   32.0571    8.6840 C   0  0  0  0  0  0  0  0  0  0  0  0
   -2.9043   32.5856    9.3260 C   0  0  0  0  0  0  0  0  0  0  0  0
   -4.0665   31.7727    8.9625 N   0  0  0  0  0  0  0  0  0  0  0  0
   -3.8784   30.3568    9.3803 C   0  0  0  0  0  0  0  0  0  0  0  0
   -2.6131   29.7567    8.7547 C   0  0  0  0  0  0  0  0  0  0  0  0
   -4.8856   32.1403    9.4503 H   0  0  0  0  0  0  0  0  0  0  0  0
 19 20  1  0  0  0
 20 21  1  0  0  0
 21 22  1  0  0  0
 22 23  1  0  0  0
 23 24  1  0  0  0
 24 15  1  0  0  0
 15 16  2  0  0  0
 15 17  1  0  0  0
 17  1  1  0  0  0
  1  2  1  0  0  0
  1  3  1  0  0  0
  3  4  2  0  0  0
  4  5  1  0  0  0
  5  6  1  0  0  0
  6  8  1  0  0  0
  8  9  1  0  0  0
  9 10  2  0  0  0
 10 11  1  0  0  0
 11 12  1  0  0  0
 11 13  2  0  0  0
 13 14  1  0  0  0
  6  7  2  0  0  0
 24 25  1  0  0  0
 25 20  1  0  0  0
  7  3  1  0  0  0
 14  8  2  0  0  0
 23 26  1  0  0  0
 17 18  1  0  0  0
M  END
> <minimizedAffinity>
-9.29999

$$$$
OCNT-2311121


 27 29  0  0  0  0  0  0  0  0999 V2000
   -4.5821   28.7527    7.3909 N   0  0  0  0  0  0  0  0  0  0  0  0
   -5.8408   28.6687    6.8546 C   0  0  0  0  0  0  0  0  0  0  0  0
   -6.8673   28.9583    7.4572 O   0  0  0  0  0  0  0  0  0  0  0  0
   -3.8218   28.3676    6.8284 H   0  0  0  0  0  0  0  0  0  0  0  0
   -5.8601   28.1666    5.4416 C   0  0  0  0  0  0  0  0  0  0  0  0
   -5.9027   29.0565    4.3814 C   0  0  0  0  0  0  0  0  0  0  0  0
   -5.9489   28.5288    3.0981 C   0  0  0  0  0  0  0  0  0  0  0  0
   -5.9319   27.1441    2.9246 C   0  0  0  0  0  0  0  0  0  0  0  0
   -5.8753   26.3070    4.0399 C   0  0  0  0  0  0  0  0  0  0  0  0
   -5.8461   26.8129    5.2974 N   0  0  0  0  0  0  0  0  0  0  0  0
   -5.8312   24.8322    3.9522 C   0  0  0  0  0  0  0  0  0  0  0  0
   -5.8187   24.1455    2.7285 C   0  0  0  0  0  0  0  0  0  0  0  0
   -5.7788   22.7579    2.7254 C   0  0  0  0  0  0  0  0  0  0  0  0
   -5.7566   22.0035    3.8432 N   0  0  0  0  0  0  0  0  0  0  0  0
   -5.7786   22.6678    5.0167 C   0  0  0  0  0  0  0  0  0  0  0  0
   -5.8135   24.0497    5.1180 C   0  0  0  0  0  0  0  0  0  0  0  0
   -4.3410   29.0654    8.7712 C   0  0  0  0  0  0  0  0  0  0  0  0
   -1.8496   29.7258    8.6617 C   0  0  0  0  0  0  0  0  0  0  0  0
   -0.8687   30.7159    8.8758 C   0  0  0  0  0  0  0  0  0  0  0  0
   -1.2096   31.9969    9.3076 C   0  0  0  0  0  0  0  0  0  0  0  0
   -2.5384   32.3125    9.5470 C   0  0  0  0  0  0  0  0  0  0  0  0
   -3.5237   31.3496    9.3453 C   0  0  0  0  0  0  0  0  0  0  0  0
   -3.2019   30.0515    8.8980 C   0  0  0  0  0  0  0  0  0  0  0  0
   -1.3750   28.3628    8.1940 C   0  0  0  0  0  0  0  0  0  0  0  0
   -1.7147   26.7664    6.3979 C   0  0  0  0  0  0  0  0  0  0  0  0
   -1.4891   28.1601    6.7456 N   0  0  0  0  0  0  0  0  0  0  0  0
   -2.2819   28.7056    6.4072 H   0  0  0  0  0  0  0  0  0  0  0  0
 25 26  1  0  0  0
 26 24  1  0  0  0
 24 18  1  0  0  0
 18 19  2  0  0  0
 19 20  1  0  0  0
 20 21  2  0  0  0
 21 22  1  0  0  0
 22 23  2  0  0  0
 23 17  1  0  0  0
 17  1  1  0  0  0
  1  2  1  0  0  0
  2  3  2  0  0  0
  2  5  1  0  0  0
  5  6  1  0  0  0
  6  7  2  0  0  0
  7  8  1  0  0  0
  8  9  2  0  0  0
  9 11  1  0  0  0
 11 12  2  0  0  0
 12 13  1  0  0  0
 13 14  2  0  0  0
 14 15  1  0  0  0
 15 16  2  0  0  0
  9 10  1  0  0  0
 23 18  1  0  0  0
 10  5  2  0  0  0
 16 11  1  0  0  0
 26 27  1  0  0  0
  1  4  1  0  0  0
M  END
> <minimizedAffinity>
-9.16066

$$$$
OCNT-2311123


 24 27  0  0  0  0  0  0  0  0999 V2000
   -1.7416   27.2605    6.1800 N   0  0  0  0  0  0  0  0  0  0  0  0
   -2.6781   28.2279    6.4159 C   0  0  0  0  0  0  0  0  0  0  0  0
   -2.0502   29.0998    7.2778 C   0  0  0  0  0  0  0  0  0  0  0  0
   -0.7758   28.6456    7.5164 N   0  0  0  0  0  0  0  0  0  0  0  0
   -0.5964   27.5212    6.8372 N   0  0  0  0  0  0  0  0  0  0  0  0
   -2.5948   30.3161    7.8618 C   0  0  0  0  0  0  0  0  0  0  0  0
   -2.2216   30.7500    9.1442 C   0  0  0  0  0  0  0  0  0  0  0  0
   -2.7488   31.9247    9.7066 C   0  0  0  0  0  0  0  0  0  0  0  0
   -3.6696   32.6769    8.9611 C   0  0  0  0  0  0  0  0  0  0  0  0
   -4.4062   33.8675    9.1469 C   0  0  0  0  0  0  0  0  0  0  0  0
   -5.1725   34.1704    8.0955 N   0  0  0  0  0  0  0  0  0  0  0  0
   -4.9244   33.1694    7.2310 N   0  0  0  0  0  0  0  0  0  0  0  0
   -4.0303   32.2400    7.6936 C   0  0  0  0  0  0  0  0  0  0  0  0
   -3.5168   31.0730    7.1149 C   0  0  0  0  0  0  0  0  0  0  0  0
   -5.3996   33.1770    6.3357 H   0  0  0  0  0  0  0  0  0  0  0  0
   -0.6468   26.0131    4.3652 C   0  0  0  0  0  0  0  0  0  0  0  0
   -1.8402   26.0795    5.3228 C   0  0  0  0  0  0  0  0  0  0  0  0
   -3.2175   26.0028    4.6749 C   0  0  0  0  0  0  0  0  0  0  0  0
   -3.3623   26.4108    3.3334 C   0  0  0  0  0  0  0  0  0  0  0  0
   -4.6006   26.3480    2.6878 C   0  0  0  0  0  0  0  0  0  0  0  0
   -5.7161   25.8741    3.3714 C   0  0  0  0  0  0  0  0  0  0  0  0
   -5.5823   25.4662    4.6916 C   0  0  0  0  0  0  0  0  0  0  0  0
   -6.6532   25.0046    5.3506 F   0  0  0  0  0  0  0  0  0  0  0  0
   -4.3532   25.5237    5.3457 C   0  0  0  0  0  0  0  0  0  0  0  0
 16 17  1  0  0  0
 17 18  1  0  0  0
 18 19  2  0  0  0
 19 20  1  0  0  0
 20 21  2  0  0  0
 21 22  1  0  0  0
 22 23  1  0  0  0
 22 24  2  0  0  0
 17  1  1  0  0  0
  1  2  1  0  0  0
  2  3  2  0  0  0
  3  6  1  0  0  0
  6  7  2  0  0  0
  7  8  1  0  0  0
  8  9  2  0  0  0
  9 10  1  0  0  0
 10 11  2  0  0  0
 11 12  1  0  0  0
 12 13  1  0  0  0
 13 14  2  0  0  0
  3  4  1  0  0  0
  4  5  2  0  0  0
 24 18  1  0  0  0
  5  1  1  0  0  0
 14  6  1  0  0  0
 13  9  1  0  0  0
 12 15  1  0  0  0
M  END
> <minimizedAffinity>
-9.32261

$$$$
OCNT-2311132


 24 27  0  0  0  0  0  0  0  0999 V2000
   -4.9839   26.8999    3.3496 C   0  0  0  0  0  0  0  0  0  0  0  0
   -3.5846   26.7146    3.9641 C   0  0  0  0  0  0  0  0  0  0  0  0
   -3.6379   26.5841    5.4846 C   0  0  0  0  0  0  0  0  0  0  0  0
   -4.3490   27.7193    6.0562 N   0  0  0  0  0  0  0  0  0  0  0  0
   -3.6014   28.7838    6.5566 C   0  0  0  0  0  0  0  0  0  0  0  0
   -2.3773   28.8534    6.4557 O   0  0  0  0  0  0  0  0  0  0  0  0
   -5.7409   27.8272    5.6222 C   0  0  0  0  0  0  0  0  0  0  0  0
   -5.7970   27.9757    4.0983 C   0  0  0  0  0  0  0  0  0  0  0  0
   -4.2790   29.9067    7.2204 C   0  0  0  0  0  0  0  0  0  0  0  0
   -4.1010   31.2111    6.7406 C   0  0  0  0  0  0  0  0  0  0  0  0
   -4.7109   32.2823    7.3829 C   0  0  0  0  0  0  0  0  0  0  0  0
   -4.5387   33.5178    6.8944 F   0  0  0  0  0  0  0  0  0  0  0  0
   -5.4990   32.1122    8.5251 C   0  0  0  0  0  0  0  0  0  0  0  0
   -5.6620   30.8131    9.0377 C   0  0  0  0  0  0  0  0  0  0  0  0
   -5.0455   29.7502    8.3783 C   0  0  0  0  0  0  0  0  0  0  0  0
   -5.3106   28.5841    9.0358 O   0  0  0  0  0  0  0  0  0  0  0  0
   -6.0949   28.8903   10.1002 C   0  0  0  0  0  0  0  0  0  0  0  0
   -6.3421   30.2422   10.1463 C   0  0  0  0  0  0  0  0  0  0  0  0
   -5.4696   25.1443    0.7876 C   0  0  0  0  0  0  0  0  0  0  0  0
   -5.9051   24.8669    2.1276 N   0  0  0  0  0  0  0  0  0  0  0  0
   -6.6117   23.7605    2.3991 N   0  0  0  0  0  0  0  0  0  0  0  0
   -6.8465   23.8097    3.7014 N   0  0  0  0  0  0  0  0  0  0  0  0
   -6.3007   24.9396    4.2562 N   0  0  0  0  0  0  0  0  0  0  0  0
   -5.7198   25.5973    3.2723 C   0  0  0  0  0  0  0  0  0  0  0  0
 19 20  1  0  0  0
 20 21  1  0  0  0
 21 22  2  0  0  0
 22 23  1  0  0  0
 23 24  2  0  0  0
 24  1  1  0  0  0
  1  2  1  0  0  0
  2  3  1  0  0  0
  3  4  1  0  0  0
  4  5  1  0  0  0
  5  6  2  0  0  0
  5  9  1  0  0  0
  9 10  1  0  0  0
 10 11  2  0  0  0
 11 12  1  0  0  0
 11 13  1  0  0  0
 13 14  2  0  0  0
 14 15  1  0  0  0
 15 16  1  0  0  0
 16 17  1  0  0  0
 17 18  2  0  0  0
  4  7  1  0  0  0
  7  8  1  0  0  0
 24 20  1  0  0  0
  8  1  1  0  0  0
 15  9  2  0  0  0
 18 14  1  0  0  0
M  END
> <minimizedAffinity>
-8.48924

$$$$
OCNT-2311133


 22 24  0  0  0  0  0  0  0  0999 V2000
   -3.0492   26.3051    4.4657 C   0  0  0  0  0  0  0  0  0  0  0  0
   -1.7545   25.9902    4.0308 C   0  0  0  0  0  0  0  0  0  0  0  0
   -0.6292   26.1834    4.7627 N   0  0  0  0  0  0  0  0  0  0  0  0
   -0.8418   26.6941    5.9910 C   0  0  0  0  0  0  0  0  0  0  0  0
   -2.1115   26.9493    6.4743 C   0  0  0  0  0  0  0  0  0  0  0  0
   -3.2243   26.7670    5.7250 N   0  0  0  0  0  0  0  0  0  0  0  0
   -6.2146   23.0739    1.7665 C   0  0  0  0  0  0  0  0  0  0  0  0
   -6.2196   24.4470    2.2575 N   0  0  0  0  0  0  0  0  0  0  0  0
   -6.0167   24.4726    3.7220 C   0  0  0  0  0  0  0  0  0  0  0  0
   -5.4447   25.8040    4.2682 C   0  0  0  0  0  0  0  0  0  0  0  0
   -4.1560   26.1472    3.6293 N   0  0  0  0  0  0  0  0  0  0  0  0
   -3.8904   25.4670    2.3504 C   0  0  0  0  0  0  0  0  0  0  0  0
   -5.2100   25.2788    1.5698 C   0  0  0  0  0  0  0  0  0  0  0  0
   -2.2172   27.5175    7.7217 O   0  0  0  0  0  0  0  0  0  0  0  0
   -1.1145   28.3599    8.0508 C   0  0  0  0  0  0  0  0  0  0  0  0
   -1.6804   29.6627    8.5646 C   0  0  0  0  0  0  0  0  0  0  0  0
   -0.8175   30.6892    8.9805 C   0  0  0  0  0  0  0  0  0  0  0  0
   -1.3307   31.8898    9.4747 C   0  0  0  0  0  0  0  0  0  0  0  0
   -2.7093   32.0752    9.5634 C   0  0  0  0  0  0  0  0  0  0  0  0
   -3.5734   31.0548    9.1616 C   0  0  0  0  0  0  0  0  0  0  0  0
   -5.2768   31.2850    9.2669 Cl  0  0  0  0  0  0  0  0  0  0  0  0
   -3.0687   29.8499    8.6701 C   0  0  0  0  0  0  0  0  0  0  0  0
  7  8  1  0  0  0
  8  9  1  0  0  0
  9 10  1  0  0  0
 10 11  1  0  0  0
 11  1  1  0  0  0
  1  2  2  0  0  0
  2  3  1  0  0  0
  3  4  2  0  0  0
  4  5  1  0  0  0
  5 14  1  0  0  0
 14 15  1  0  0  0
 15 16  1  0  0  0
 16 17  2  0  0  0
 17 18  1  0  0  0
 18 19  2  0  0  0
 19 20  1  0  0  0
 20 21  1  0  0  0
 20 22  2  0  0  0
  5  6  2  0  0  0
 11 12  1  0  0  0
 12 13  1  0  0  0
 13  8  1  0  0  0
  6  1  1  0  0  0
 22 16  1  0  0  0
M  END
> <minimizedAffinity>
-8.44156

$$$$
OCNT-2311138


 27 30  0  0  0  0  0  0  0  0999 V2000
   -2.9351   27.6179    7.1443 C   0  0  0  0  0  0  0  0  0  0  0  0
   -2.0881   27.2652    7.9612 O   0  0  0  0  0  0  0  0  0  0  0  0
   -3.9105   28.5328    7.4554 N   0  0  0  0  0  0  0  0  0  0  0  0
   -4.7327   28.5627    6.8689 H   0  0  0  0  0  0  0  0  0  0  0  0
   -4.0190   29.1186    8.7866 C   0  0  0  0  0  0  0  0  0  0  0  0
   -3.1223   30.3404    8.8460 C   0  0  0  0  0  0  0  0  0  0  0  0
   -1.7275   30.1626    8.8775 C   0  0  0  0  0  0  0  0  0  0  0  0
   -0.8687   31.2603    8.8973 C   0  0  0  0  0  0  0  0  0  0  0  0
   -1.3915   32.5494    8.8840 C   0  0  0  0  0  0  0  0  0  0  0  0
   -2.7724   32.7414    8.8495 C   0  0  0  0  0  0  0  0  0  0  0  0
   -3.6491   31.6456    8.8199 C   0  0  0  0  0  0  0  0  0  0  0  0
   -5.1355   31.9068    8.8310 C   0  0  0  0  0  0  0  0  0  0  0  0
   -5.9740   30.6943    8.4457 C   0  0  0  0  0  0  0  0  0  0  0  0
   -5.4879   29.4472    9.1780 C   0  0  0  0  0  0  0  0  0  0  0  0
   -6.4002   28.3840    8.8942 O   0  0  0  0  0  0  0  0  0  0  0  0
   -5.9232   27.5361    9.0140 H   0  0  0  0  0  0  0  0  0  0  0  0
   -4.4210   26.1436    2.6148 C   0  0  0  0  0  0  0  0  0  0  0  0
   -5.6577   26.6887    2.6099 C   0  0  0  0  0  0  0  0  0  0  0  0
   -6.1059   27.4845    3.7367 C   0  0  0  0  0  0  0  0  0  0  0  0
   -5.3336   27.6795    4.8185 C   0  0  0  0  0  0  0  0  0  0  0  0
   -4.0384   27.0851    4.8811 C   0  0  0  0  0  0  0  0  0  0  0  0
   -3.0134   27.0522    5.8128 C   0  0  0  0  0  0  0  0  0  0  0  0
   -1.9840   26.3496    5.1577 C   0  0  0  0  0  0  0  0  0  0  0  0
   -2.3242   25.9152    3.9477 N   0  0  0  0  0  0  0  0  0  0  0  0
   -3.6017   26.3560    3.7579 N   0  0  0  0  0  0  0  0  0  0  0  0
   -4.5590   24.2090    1.1881 C   0  0  0  0  0  0  0  0  0  0  0  0
   -3.8757   25.3860    1.5934 O   0  0  0  0  0  0  0  0  0  0  0  0
 26 27  1  0  0  0
 27 17  1  0  0  0
 17 18  2  0  0  0
 18 19  1  0  0  0
 19 20  2  0  0  0
 20 21  1  0  0  0
 21 22  2  0  0  0
 22  1  1  0  0  0
  1  2  2  0  0  0
  1  3  1  0  0  0
  3  5  1  0  0  0
  5  6  1  0  0  0
  6  7  2  0  0  0
  7  8  1  0  0  0
  8  9  2  0  0  0
  9 10  1  0  0  0
 10 11  2  0  0  0
 11 12  1  0  0  0
 12 13  1  0  0  0
 13 14  1  0  0  0
 14 15  1  0  0  0
 22 23  1  0  0  0
 23 24  2  0  0  0
 24 25  1  0  0  0
 25 17  1  0  0  0
 25 21  1  0  0  0
 14  5  1  0  0  0
 11  6  1  0  0  0
  3  4  1  0  0  0
 15 16  1  0  0  0
M  END
> <minimizedAffinity>
-9.97994

$$$$
OCNT-2311148


 26 29  0  0  0  0  0  0  0  0999 V2000
   -3.6818   30.5632    7.2680 C   0  0  0  0  0  0  0  0  0  0  0  0
   -3.5924   29.0438    7.4644 C   0  0  0  0  0  0  0  0  0  0  0  0
   -3.8775   28.2854    6.1694 C   0  0  0  0  0  0  0  0  0  0  0  0
   -5.1780   28.6067    5.5751 N   0  0  0  0  0  0  0  0  0  0  0  0
   -5.7271   29.9094    5.9421 C   0  0  0  0  0  0  0  0  0  0  0  0
   -4.6139   30.9376    6.1055 C   0  0  0  0  0  0  0  0  0  0  0  0
   -2.3967   31.1156    6.9545 O   0  0  0  0  0  0  0  0  0  0  0  0
   -1.6736   31.5832    9.5979 C   0  0  0  0  0  0  0  0  0  0  0  0
   -0.8735   30.7043    8.6848 C   0  0  0  0  0  0  0  0  0  0  0  0
    0.2725   30.0658    9.1467 C   0  0  0  0  0  0  0  0  0  0  0  0
    1.0389   29.2434    8.3987 N   0  0  0  0  0  0  0  0  0  0  0  0
    0.6416   29.0458    7.1266 C   0  0  0  0  0  0  0  0  0  0  0  0
   -0.4852   29.6263    6.5661 C   0  0  0  0  0  0  0  0  0  0  0  0
   -1.2620   30.4659    7.3594 C   0  0  0  0  0  0  0  0  0  0  0  0
   -6.1480   27.5053    5.5864 C   0  0  0  0  0  0  0  0  0  0  0  0
   -6.0201   26.5801    4.4228 C   0  0  0  0  0  0  0  0  0  0  0  0
   -6.1176   25.2053    4.3809 C   0  0  0  0  0  0  0  0  0  0  0  0
   -5.9225   24.8720    3.0605 N   0  0  0  0  0  0  0  0  0  0  0  0
   -5.7187   26.0031    2.3402 N   0  0  0  0  0  0  0  0  0  0  0  0
   -5.7961   27.0445    3.1560 N   0  0  0  0  0  0  0  0  0  0  0  0
   -5.9160   23.5878    2.4582 C   0  0  0  0  0  0  0  0  0  0  0  0
   -6.2581   23.4578    1.1029 C   0  0  0  0  0  0  0  0  0  0  0  0
   -6.2569   22.2001    0.4952 C   0  0  0  0  0  0  0  0  0  0  0  0
   -5.9176   21.0678    1.2325 C   0  0  0  0  0  0  0  0  0  0  0  0
   -5.5779   21.1896    2.5790 C   0  0  0  0  0  0  0  0  0  0  0  0
   -5.5739   22.4449    3.1949 C   0  0  0  0  0  0  0  0  0  0  0  0
  8  9  1  0  0  0
  9 10  2  0  0  0
 10 11  1  0  0  0
 11 12  2  0  0  0
 12 13  1  0  0  0
 13 14  2  0  0  0
 14  7  1  0  0  0
  7  1  1  0  0  0
  1  2  1  0  0  0
  2  3  1  0  0  0
  3  4  1  0  0  0
  4 15  1  0  0  0
 15 16  1  0  0  0
 16 17  2  0  0  0
 17 18  1  0  0  0
 18 21  1  0  0  0
 21 22  2  0  0  0
 22 23  1  0  0  0
 23 24  2  0  0  0
 24 25  1  0  0  0
 25 26  2  0  0  0
 18 19  1  0  0  0
 19 20  2  0  0  0
  4  5  1  0  0  0
  5  6  1  0  0  0
 14  9  1  0  0  0
  6  1  1  0  0  0
 20 16  1  0  0  0
 26 21  1  0  0  0
M  END
> <minimizedAffinity>
-9.54777

$$$$
OCNT-2311155


 26 28  0  0  0  0  0  0  0  0999 V2000
   -4.6740   28.3779    5.6605 C   0  0  0  0  0  0  0  0  0  0  0  0
   -3.5136   27.7158    6.0050 C   0  0  0  0  0  0  0  0  0  0  0  0
   -3.3994   26.2449    5.1430 S   0  0  0  0  0  0  0  0  0  0  0  0
   -4.8958   26.5802    4.3513 C   0  0  0  0  0  0  0  0  0  0  0  0
   -5.4554   27.7207    4.7154 N   0  0  0  0  0  0  0  0  0  0  0  0
   -5.4913   25.6536    3.3643 C   0  0  0  0  0  0  0  0  0  0  0  0
   -5.4560   26.0027    2.0028 C   0  0  0  0  0  0  0  0  0  0  0  0
   -6.0005   25.1684    1.0201 C   0  0  0  0  0  0  0  0  0  0  0  0
   -6.5921   23.9492    1.3719 C   0  0  0  0  0  0  0  0  0  0  0  0
   -6.6392   23.5935    2.7262 C   0  0  0  0  0  0  0  0  0  0  0  0
   -6.0929   24.4320    3.7072 C   0  0  0  0  0  0  0  0  0  0  0  0
   -7.2001   23.0564    0.3179 C   0  0  0  0  0  0  0  0  0  0  0  0
   -6.2741   22.3228   -0.3605 F   0  0  0  0  0  0  0  0  0  0  0  0
   -8.0859   22.1551    0.8271 F   0  0  0  0  0  0  0  0  0  0  0  0
   -7.8837   23.7609   -0.6252 F   0  0  0  0  0  0  0  0  0  0  0  0
   -5.1389   29.7041    6.1824 C   0  0  0  0  0  0  0  0  0  0  0  0
   -4.3423   30.7446    5.5220 N   0  0  0  0  0  0  0  0  0  0  0  0
   -4.9997   31.3075    4.9771 H   0  0  0  0  0  0  0  0  0  0  0  0
   -3.6775   31.6141    6.4868 C   0  0  0  0  0  0  0  0  0  0  0  0
    0.7078   29.3471    7.8029 C   0  0  0  0  0  0  0  0  0  0  0  0
   -0.6475   29.9450    7.7700 C   0  0  0  0  0  0  0  0  0  0  0  0
   -1.3989   29.9699    8.8752 N   0  0  0  0  0  0  0  0  0  0  0  0
   -2.5431   30.5673    8.4869 N   0  0  0  0  0  0  0  0  0  0  0  0
   -3.5888   30.7757    9.4616 C   0  0  0  0  0  0  0  0  0  0  0  0
   -2.5418   30.9368    7.1651 C   0  0  0  0  0  0  0  0  0  0  0  0
   -1.3152   30.5352    6.6755 C   0  0  0  0  0  0  0  0  0  0  0  0
 20 21  1  0  0  0
 21 22  2  0  0  0
 22 23  1  0  0  0
 23 24  1  0  0  0
 23 25  1  0  0  0
 25 19  1  0  0  0
 19 17  1  0  0  0
 17 16  1  0  0  0
 16  1  1  0  0  0
  1  2  2  0  0  0
  2  3  1  0  0  0
  3  4  1  0  0  0
  4  6  1  0  0  0
  6  7  1  0  0  0
  7  8  2  0  0  0
  8  9  1  0  0  0
  9 12  1  0  0  0
 12 13  1  0  0  0
 12 14  1  0  0  0
 12 15  1  0  0  0
  9 10  2  0  0  0
 10 11  1  0  0  0
  4  5  2  0  0  0
 25 26  2  0  0  0
 26 21  1  0  0  0
  5  1  1  0  0  0
 11  6  2  0  0  0
 17 18  1  0  0  0
M  END
> <minimizedAffinity>
-9.28925

$$$$
OCNT-2311160


 27 30  0  0  0  0  0  0  0  0999 V2000
   -2.5228   27.9682    7.6767 C   0  0  0  0  0  0  0  0  0  0  0  0
   -1.6663   28.1147    8.5429 O   0  0  0  0  0  0  0  0  0  0  0  0
   -3.8011   28.4459    7.8189 N   0  0  0  0  0  0  0  0  0  0  0  0
   -4.4311   28.4267    7.0298 H   0  0  0  0  0  0  0  0  0  0  0  0
   -4.2229   29.1815    9.0088 C   0  0  0  0  0  0  0  0  0  0  0  0
   -4.1344   30.6827    8.7664 C   0  0  0  0  0  0  0  0  0  0  0  0
   -2.9525   31.2314    8.2310 C   0  0  0  0  0  0  0  0  0  0  0  0
   -2.8336   32.6027    8.0060 C   0  0  0  0  0  0  0  0  0  0  0  0
   -3.8886   33.4506    8.3235 C   0  0  0  0  0  0  0  0  0  0  0  0
   -5.0545   32.9295    8.8816 C   0  0  0  0  0  0  0  0  0  0  0  0
   -5.1805   31.5527    9.1275 C   0  0  0  0  0  0  0  0  0  0  0  0
   -6.4596   31.0404    9.7411 C   0  0  0  0  0  0  0  0  0  0  0  0
   -6.2783   29.6856   10.4199 C   0  0  0  0  0  0  0  0  0  0  0  0
   -5.6251   28.6926    9.4689 C   0  0  0  0  0  0  0  0  0  0  0  0
   -6.5034   28.4905    8.3494 O   0  0  0  0  0  0  0  0  0  0  0  0
   -6.0263   27.8926    7.7469 H   0  0  0  0  0  0  0  0  0  0  0  0
    0.0724   25.6686    4.1395 C   0  0  0  0  0  0  0  0  0  0  0  0
   -1.0503   26.2734    4.8225 N   0  0  0  0  0  0  0  0  0  0  0  0
   -0.9984   26.8080    6.0770 C   0  0  0  0  0  0  0  0  0  0  0  0
   -2.2479   27.3069    6.4049 C   0  0  0  0  0  0  0  0  0  0  0  0
   -3.1098   27.0062    5.2921 C   0  0  0  0  0  0  0  0  0  0  0  0
   -4.4862   27.1835    5.0234 C   0  0  0  0  0  0  0  0  0  0  0  0
   -5.0053   26.7657    3.7978 C   0  0  0  0  0  0  0  0  0  0  0  0
   -6.3101   26.9432    3.5496 F   0  0  0  0  0  0  0  0  0  0  0  0
   -4.2088   26.1692    2.8344 C   0  0  0  0  0  0  0  0  0  0  0  0
   -2.8511   25.9592    3.0768 C   0  0  0  0  0  0  0  0  0  0  0  0
   -2.3261   26.3780    4.3124 C   0  0  0  0  0  0  0  0  0  0  0  0
 17 18  1  0  0  0
 18 19  1  0  0  0
 19 20  2  0  0  0
 20  1  1  0  0  0
  1  2  2  0  0  0
  1  3  1  0  0  0
  3  5  1  0  0  0
  5  6  1  0  0  0
  6  7  2  0  0  0
  7  8  1  0  0  0
  8  9  2  0  0  0
  9 10  1  0  0  0
 10 11  2  0  0  0
 11 12  1  0  0  0
 12 13  1  0  0  0
 13 14  1  0  0  0
 14 15  1  0  0  0
 20 21  1  0  0  0
 21 22  2  0  0  0
 22 23  1  0  0  0
 23 24  1  0  0  0
 23 25  2  0  0  0
 25 26  1  0  0  0
 26 27  2  0  0  0
 27 18  1  0  0  0
 14  5  1  0  0  0
 27 21  1  0  0  0
 11  6  1  0  0  0
  3  4  1  0  0  0
 15 16  1  0  0  0
M  END
> <minimizedAffinity>
-10.32074

$$$$
OCNT-2311187


 26 28  0  0  0  0  0  0  0  0999 V2000
   -0.7968   27.0877    6.3217 C   0  0  0  0  0  0  0  0  0  0  0  0
   -2.2839   26.8856    6.6715 C   0  0  0  0  0  0  0  0  0  0  0  0
   -2.4219   25.6558    7.4085 O   0  0  0  0  0  0  0  0  0  0  0  0
   -3.3789   25.5287    7.5382 H   0  0  0  0  0  0  0  0  0  0  0  0
   -3.1532   26.8693    5.4240 C   0  0  0  0  0  0  0  0  0  0  0  0
   -2.7989   26.0137    4.3615 C   0  0  0  0  0  0  0  0  0  0  0  0
   -3.5566   25.9633    3.1975 C   0  0  0  0  0  0  0  0  0  0  0  0
   -4.6770   26.7762    3.0675 C   0  0  0  0  0  0  0  0  0  0  0  0
   -5.0490   27.6591    4.0904 C   0  0  0  0  0  0  0  0  0  0  0  0
   -6.1756   28.4812    3.9227 C   0  0  0  0  0  0  0  0  0  0  0  0
   -6.5629   29.3809    4.9127 C   0  0  0  0  0  0  0  0  0  0  0  0
   -5.8251   29.4715    6.0838 C   0  0  0  0  0  0  0  0  0  0  0  0
   -4.7037   28.6578    6.2676 C   0  0  0  0  0  0  0  0  0  0  0  0
   -4.2860   27.7263    5.2859 C   0  0  0  0  0  0  0  0  0  0  0  0
   -0.1081   27.6810    7.4825 N   0  0  0  0  0  0  0  0  0  0  0  0
    0.3913   27.0244    8.0850 H   0  0  0  0  0  0  0  0  0  0  0  0
    0.5967   29.1897    7.3416 S   0  0  0  0  0  0  0  0  0  0  0  0
    1.5462   29.3348    8.4233 O   0  0  0  0  0  0  0  0  0  0  0  0
    0.9899   29.3387    5.9582 O   0  0  0  0  0  0  0  0  0  0  0  0
   -2.4064   32.0100   10.6062 C   0  0  0  0  0  0  0  0  0  0  0  0
   -2.1195   31.5447    9.2089 C   0  0  0  0  0  0  0  0  0  0  0  0
   -2.8962   32.0016    8.1351 C   0  0  0  0  0  0  0  0  0  0  0  0
   -2.6233   31.5863    6.8292 C   0  0  0  0  0  0  0  0  0  0  0  0
   -1.5597   30.7216    6.5784 C   0  0  0  0  0  0  0  0  0  0  0  0
   -0.7651   30.2881    7.6424 C   0  0  0  0  0  0  0  0  0  0  0  0
   -1.0417   30.6883    8.9545 C   0  0  0  0  0  0  0  0  0  0  0  0
 20 21  1  0  0  0
 21 22  1  0  0  0
 22 23  2  0  0  0
 23 24  1  0  0  0
 24 25  2  0  0  0
 25 17  1  0  0  0
 17 18  2  0  0  0
 17 19  2  0  0  0
 17 15  1  0  0  0
 15  1  1  0  0  0
  1  2  1  0  0  0
  2  3  1  0  0  0
  2  5  1  0  0  0
  5  6  2  0  0  0
  6  7  1  0  0  0
  7  8  2  0  0  0
  8  9  1  0  0  0
  9 10  2  0  0  0
 10 11  1  0  0  0
 11 12  2  0  0  0
 12 13  1  0  0  0
 13 14  2  0  0  0
 25 26  1  0  0  0
 26 21  2  0  0  0
 14  5  1  0  0  0
 14  9  1  0  0  0
 15 16  1  0  0  0
  3  4  1  0  0  0
M  END
> <minimizedAffinity>
-9.55376

$$$$
OCNT-2311194


 24 26  0  0  0  0  0  0  0  0999 V2000
   -6.0851   23.7145    3.4037 C   0  0  0  0  0  0  0  0  0  0  0  0
   -6.5154   23.5856    1.9673 C   0  0  0  0  0  0  0  0  0  0  0  0
   -7.0804   22.4828    1.3449 C   0  0  0  0  0  0  0  0  0  0  0  0
   -7.4452   22.5928    0.0018 C   0  0  0  0  0  0  0  0  0  0  0  0
   -7.2526   23.7963   -0.6940 C   0  0  0  0  0  0  0  0  0  0  0  0
   -6.6920   24.9054   -0.0569 C   0  0  0  0  0  0  0  0  0  0  0  0
   -6.3222   24.7821    1.2718 C   0  0  0  0  0  0  0  0  0  0  0  0
   -5.7334   25.8297    2.1647 C   0  0  0  0  0  0  0  0  0  0  0  0
   -5.1506   24.9788    3.3403 C   0  0  0  0  0  0  0  0  0  0  0  0
   -5.1201   25.8070    4.6397 C   0  0  0  0  0  0  0  0  0  0  0  0
   -4.1724   27.0094    4.5414 C   0  0  0  0  0  0  0  0  0  0  0  0
   -2.9382   26.7580    3.7949 N   0  0  0  0  0  0  0  0  0  0  0  0
   -2.6151   25.3377    3.7434 C   0  0  0  0  0  0  0  0  0  0  0  0
   -3.6874   24.5356    2.9981 C   0  0  0  0  0  0  0  0  0  0  0  0
   -3.0344   27.1135    2.8442 H   0  0  0  0  0  0  0  0  0  0  0  0
   -7.4205   23.2302    5.4161 C   0  0  0  0  0  0  0  0  0  0  0  0
   -6.6286   22.4347    5.8940 O   0  0  0  0  0  0  0  0  0  0  0  0
   -7.2550   23.8789    4.2344 N   0  0  0  0  0  0  0  0  0  0  0  0
   -7.9837   24.5236    3.9634 H   0  0  0  0  0  0  0  0  0  0  0  0
   -8.5910   23.6242    5.9652 O   0  0  0  0  0  0  0  0  0  0  0  0
   -9.8200   21.6281    5.2048 C   0  0  0  0  0  0  0  0  0  0  0  0
   -9.6037   22.6502    6.3263 C   0  0  0  0  0  0  0  0  0  0  0  0
   -9.2743   21.9750    7.6624 C   0  0  0  0  0  0  0  0  0  0  0  0
  -10.8910   23.4715    6.4963 C   0  0  0  0  0  0  0  0  0  0  0  0
 21 22  1  0  0  0
 22 23  1  0  0  0
 22 24  1  0  0  0
 22 20  1  0  0  0
 20 16  1  0  0  0
 16 17  2  0  0  0
 16 18  1  0  0  0
 18  1  1  0  0  0
  1  2  1  0  0  0
  2  3  2  0  0  0
  3  4  1  0  0  0
  4  5  2  0  0  0
  5  6  1  0  0  0
  6  7  2  0  0  0
  7  8  1  0  0  0
  8  9  1  0  0  0
  9 10  1  0  0  0
 10 11  1  0  0  0
 11 12  1  0  0  0
 12 13  1  0  0  0
 13 14  1  0  0  0
  9  1  1  0  0  0
  7  2  1  0  0  0
 14  9  1  0  0  0
 18 19  1  0  0  0
 12 15  1  0  0  0
M  END
> <minimizedAffinity>
-8.52483

$$$$
OCNT-2311202


 32 34  0  0  0  0  0  0  0  0999 V2000
   -3.7810   25.5034    4.4957 C   0  0  0  0  0  0  0  0  0  0  0  0
   -2.6125   25.0758    3.8559 C   0  0  0  0  0  0  0  0  0  0  0  0
   -1.3960   25.6845    4.1631 C   0  0  0  0  0  0  0  0  0  0  0  0
   -1.3502   26.7235    5.0964 C   0  0  0  0  0  0  0  0  0  0  0  0
   -2.5291   27.1655    5.7159 C   0  0  0  0  0  0  0  0  0  0  0  0
   -3.7504   26.5510    5.4191 C   0  0  0  0  0  0  0  0  0  0  0  0
   -2.5136   28.2565    6.7278 C   0  0  0  0  0  0  0  0  0  0  0  0
   -2.2334   27.9631    7.8845 O   0  0  0  0  0  0  0  0  0  0  0  0
   -2.8505   29.5039    6.2385 N   0  0  0  0  0  0  0  0  0  0  0  0
   -3.1646   29.5882    5.2809 H   0  0  0  0  0  0  0  0  0  0  0  0
   -2.8747   30.6719    6.9766 C   0  0  0  0  0  0  0  0  0  0  0  0
   -1.8289   31.3014    7.6059 C   0  0  0  0  0  0  0  0  0  0  0  0
   -2.3082   32.4349    8.2068 N   0  0  0  0  0  0  0  0  0  0  0  0
   -3.6651   32.5464    7.9984 C   0  0  0  0  0  0  0  0  0  0  0  0
   -4.0263   31.4632    7.2114 C   0  0  0  0  0  0  0  0  0  0  0  0
   -1.7406   33.1098    8.7010 H   0  0  0  0  0  0  0  0  0  0  0  0
   -4.5114   33.6108    8.4774 C   0  0  0  0  0  0  0  0  0  0  0  0
   -5.2742   34.2330    7.5291 N   0  0  0  0  0  0  0  0  0  0  0  0
   -4.5555   33.9937    9.6410 O   0  0  0  0  0  0  0  0  0  0  0  0
   -4.9696   34.2476    6.5676 H   0  0  0  0  0  0  0  0  0  0  0  0
   -5.7330   35.0715    7.8632 H   0  0  0  0  0  0  0  0  0  0  0  0
   -5.3255   24.7201    4.0832 S   0  0  0  0  0  0  0  0  0  0  0  0
   -6.2138   25.7758    3.6416 O   0  0  0  0  0  0  0  0  0  0  0  0
   -5.6891   23.8508    5.1845 O   0  0  0  0  0  0  0  0  0  0  0  0
   -4.7053   22.3036    3.0420 C   0  0  0  0  0  0  0  0  0  0  0  0
   -4.8848   23.7452    2.7406 N   0  0  0  0  0  0  0  0  0  0  0  0
   -5.6705   23.9925    1.5574 C   0  0  0  0  0  0  0  0  0  0  0  0
   -5.4545   25.1027    0.7358 C   0  0  0  0  0  0  0  0  0  0  0  0
   -6.2890   25.3320   -0.3597 C   0  0  0  0  0  0  0  0  0  0  0  0
   -7.3497   24.4653   -0.6236 C   0  0  0  0  0  0  0  0  0  0  0  0
   -7.5816   23.3716    0.2099 C   0  0  0  0  0  0  0  0  0  0  0  0
   -6.7477   23.1407    1.3051 C   0  0  0  0  0  0  0  0  0  0  0  0
 25 26  1  0  0  0
 26 27  1  0  0  0
 27 28  2  0  0  0
 28 29  1  0  0  0
 29 30  2  0  0  0
 30 31  1  0  0  0
 31 32  2  0  0  0
 26 22  1  0  0  0
 22 23  2  0  0  0
 22 24  2  0  0  0
 22  1  1  0  0  0
  1  2  2  0  0  0
  2  3  1  0  0  0
  3  4  2  0  0  0
  4  5  1  0  0  0
  5  7  1  0  0  0
  7  8  2  0  0  0
  7  9  1  0  0  0
  9 11  1  0  0  0
 11 12  2  0  0  0
 12 13  1  0  0  0
 13 14  1  0  0  0
 14 17  1  0  0  0
 17 18  1  0  0  0
 17 19  2  0  0  0
 14 15  2  0  0  0
  5  6  2  0  0  0
 32 27  1  0  0  0
  6  1  1  0  0  0
 15 11  1  0  0  0
  9 10  1  0  0  0
 13 16  1  0  0  0
 18 20  1  0  0  0
 18 21  1  0  0  0
M  END
> <minimizedAffinity>
-9.72891

$$$$
OCNT-2311203


 31 34  0  0  0  0  0  0  0  0999 V2000
   -6.4535   29.1660    5.1461 C   0  0  0  0  0  0  0  0  0  0  0  0
   -6.5719   30.1328    4.4048 O   0  0  0  0  0  0  0  0  0  0  0  0
   -6.6010   29.2284    6.5186 N   0  0  0  0  0  0  0  0  0  0  0  0
   -6.1933   28.4817    7.0654 H   0  0  0  0  0  0  0  0  0  0  0  0
   -5.2316   22.9508    3.7276 N   0  0  0  0  0  0  0  0  0  0  0  0
   -5.6292   23.0291    5.0525 C   0  0  0  0  0  0  0  0  0  0  0  0
   -5.7153   22.0636    5.8098 O   0  0  0  0  0  0  0  0  0  0  0  0
   -5.9349   24.2719    5.5314 N   0  0  0  0  0  0  0  0  0  0  0  0
   -5.8493   25.4391    4.7782 C   0  0  0  0  0  0  0  0  0  0  0  0
   -6.1888   26.6657    5.3526 C   0  0  0  0  0  0  0  0  0  0  0  0
   -6.0954   27.8356    4.5853 C   0  0  0  0  0  0  0  0  0  0  0  0
   -5.6853   27.7647    3.2467 C   0  0  0  0  0  0  0  0  0  0  0  0
   -5.3420   26.5343    2.6823 C   0  0  0  0  0  0  0  0  0  0  0  0
   -5.4233   25.3722    3.4557 C   0  0  0  0  0  0  0  0  0  0  0  0
   -5.0656   24.0549    2.8934 C   0  0  0  0  0  0  0  0  0  0  0  0
   -4.6381   23.9933    1.7432 O   0  0  0  0  0  0  0  0  0  0  0  0
   -6.2366   24.2931    6.4974 H   0  0  0  0  0  0  0  0  0  0  0  0
   -5.9709   21.0813    2.2982 C   0  0  0  0  0  0  0  0  0  0  0  0
   -4.8773   21.6390    3.1980 C   0  0  0  0  0  0  0  0  0  0  0  0
   -6.8070   30.5127    7.1672 C   0  0  0  0  0  0  0  0  0  0  0  0
   -5.7528   30.7852    8.2470 C   0  0  0  0  0  0  0  0  0  0  0  0
   -6.3414   30.7956    9.6477 C   0  0  0  0  0  0  0  0  0  0  0  0
   -6.3486   29.3315   10.0239 C   0  0  0  0  0  0  0  0  0  0  0  0
   -5.2450   28.7238    9.3466 O   0  0  0  0  0  0  0  0  0  0  0  0
   -4.7560   29.6198    8.3283 C   0  0  0  0  0  0  0  0  0  0  0  0
   -3.3442   30.0887    8.6405 C   0  0  0  0  0  0  0  0  0  0  0  0
   -2.2560   29.2741    8.2842 C   0  0  0  0  0  0  0  0  0  0  0  0
   -0.9448   29.6782    8.5434 C   0  0  0  0  0  0  0  0  0  0  0  0
   -0.7018   30.9013    9.1623 C   0  0  0  0  0  0  0  0  0  0  0  0
   -1.7691   31.7176    9.5281 C   0  0  0  0  0  0  0  0  0  0  0  0
   -3.0812   31.3140    9.2703 C   0  0  0  0  0  0  0  0  0  0  0  0
 18 19  1  0  0  0
 19  5  1  0  0  0
  5  6  1  0  0  0
  6  7  2  0  0  0
  6  8  1  0  0  0
  8  9  1  0  0  0
  9 10  1  0  0  0
 10 11  2  0  0  0
 11  1  1  0  0  0
  1  2  2  0  0  0
  1  3  1  0  0  0
  3 20  1  0  0  0
 20 21  1  0  0  0
 21 22  1  0  0  0
 22 23  1  0  0  0
 23 24  1  0  0  0
 24 25  1  0  0  0
 25 26  1  0  0  0
 26 27  2  0  0  0
 27 28  1  0  0  0
 28 29  2  0  0  0
 29 30  1  0  0  0
 30 31  2  0  0  0
 11 12  1  0  0  0
 12 13  2  0  0  0
 13 14  1  0  0  0
 14 15  1  0  0  0
 15 16  2  0  0  0
 15  5  1  0  0  0
 14  9  2  0  0  0
 25 21  1  0  0  0
 31 26  1  0  0  0
  8 17  1  0  0  0
  3  4  1  0  0  0
M  END
> <minimizedAffinity>
-10.83963

$$$$
OCNT-2311206


 25 28  0  0  0  0  0  0  0  0999 V2000
   -6.0078   27.7299    4.5169 C   0  0  0  0  0  0  0  0  0  0  0  0
   -6.2721   26.5843    5.2695 C   0  0  0  0  0  0  0  0  0  0  0  0
   -6.2494   25.3333    4.6477 C   0  0  0  0  0  0  0  0  0  0  0  0
   -5.9610   25.2077    3.2761 C   0  0  0  0  0  0  0  0  0  0  0  0
   -5.6898   26.3795    2.5461 C   0  0  0  0  0  0  0  0  0  0  0  0
   -5.7089   27.6359    3.1579 C   0  0  0  0  0  0  0  0  0  0  0  0
   -5.9326   23.8863    2.6282 C   0  0  0  0  0  0  0  0  0  0  0  0
   -5.4459   22.7510    3.3077 C   0  0  0  0  0  0  0  0  0  0  0  0
   -5.4135   21.4819    2.6986 C   0  0  0  0  0  0  0  0  0  0  0  0
   -5.8688   21.3139    1.3919 C   0  0  0  0  0  0  0  0  0  0  0  0
   -6.3428   22.4273    0.7335 C   0  0  0  0  0  0  0  0  0  0  0  0
   -6.3741   23.6727    1.3261 C   0  0  0  0  0  0  0  0  0  0  0  0
   -6.8925   24.6150    0.4840 O   0  0  0  0  0  0  0  0  0  0  0  0
   -7.1740   23.8254   -0.6869 C   0  0  0  0  0  0  0  0  0  0  0  0
   -6.8258   22.4364   -0.5383 O   0  0  0  0  0  0  0  0  0  0  0  0
   -5.3998   30.2526    4.4274 O   0  0  0  0  0  0  0  0  0  0  0  0
   -6.0487   29.3142    5.3181 S   0  0  0  0  0  0  0  0  0  0  0  0
   -7.3927   29.5470    5.7999 O   0  0  0  0  0  0  0  0  0  0  0  0
   -5.0354   29.0710    6.6675 N   0  0  0  0  0  0  0  0  0  0  0  0
   -5.6913   29.0829    8.0121 C   0  0  0  0  0  0  0  0  0  0  0  0
   -5.8359   30.5055    8.5894 C   0  0  0  0  0  0  0  0  0  0  0  0
   -4.5728   31.2660    8.6056 N   0  0  0  0  0  0  0  0  0  0  0  0
   -4.0141   31.2957    7.2406 C   0  0  0  0  0  0  0  0  0  0  0  0
   -3.7837   29.8881    6.6640 C   0  0  0  0  0  0  0  0  0  0  0  0
   -3.9116   30.7855    9.2158 H   0  0  0  0  0  0  0  0  0  0  0  0
 16 17  2  0  0  0
 17 18  2  0  0  0
 17  1  1  0  0  0
  1  2  1  0  0  0
  2  3  2  0  0  0
  3  4  1  0  0  0
  4  7  1  0  0  0
  7  8  2  0  0  0
  8  9  1  0  0  0
  9 10  2  0  0  0
 10 11  1  0  0  0
 11 12  2  0  0  0
 12 13  1  0  0  0
 13 14  1  0  0  0
 14 15  1  0  0  0
  4  5  2  0  0  0
  5  6  1  0  0  0
 17 19  1  0  0  0
 19 20  1  0  0  0
 20 21  1  0  0  0
 21 22  1  0  0  0
 22 23  1  0  0  0
 23 24  1  0  0  0
  6  1  2  0  0  0
 24 19  1  0  0  0
 12  7  1  0  0  0
 15 11  1  0  0  0
 22 25  1  0  0  0
M  END
> <minimizedAffinity>
-9.39932

$$$$
OCNT-2311212


 24 26  0  0  0  0  0  0  0  0999 V2000
   -5.7584   25.5475    2.3367 N   0  0  0  0  0  0  0  0  0  0  0  0
   -4.7100   26.2310    2.9120 C   0  0  0  0  0  0  0  0  0  0  0  0
   -3.5420   26.0342    2.5888 O   0  0  0  0  0  0  0  0  0  0  0  0
   -6.6987   25.8236    2.5823 H   0  0  0  0  0  0  0  0  0  0  0  0
   -5.0772   27.2153    3.9064 C   0  0  0  0  0  0  0  0  0  0  0  0
   -6.2123   28.0238    4.0567 C   0  0  0  0  0  0  0  0  0  0  0  0
   -5.9813   28.7631    5.2092 C   0  0  0  0  0  0  0  0  0  0  0  0
   -4.7989   28.4428    5.7463 C   0  0  0  0  0  0  0  0  0  0  0  0
   -4.2226   27.4934    4.9785 N   0  0  0  0  0  0  0  0  0  0  0  0
   -4.4423   29.2820    7.1365 S   0  0  0  0  0  0  0  0  0  0  0  0
   -5.9514   30.1074    7.0007 C   0  0  0  0  0  0  0  0  0  0  0  0
   -6.3792   31.2750    8.1870 Cl  0  0  0  0  0  0  0  0  0  0  0  0
   -6.7048   29.7318    5.9000 C   0  0  0  0  0  0  0  0  0  0  0  0
   -3.3296   27.0396    5.1281 H   0  0  0  0  0  0  0  0  0  0  0  0
   -6.3402   23.2573    1.5805 C   0  0  0  0  0  0  0  0  0  0  0  0
   -6.8063   22.5687    0.2948 C   0  0  0  0  0  0  0  0  0  0  0  0
   -7.7316   23.4717   -0.5225 C   0  0  0  0  0  0  0  0  0  0  0  0
   -7.3677   24.9535   -0.4337 C   0  0  0  0  0  0  0  0  0  0  0  0
   -5.8975   25.1542   -0.0860 C   0  0  0  0  0  0  0  0  0  0  0  0
   -5.5466   24.5486    1.2908 C   0  0  0  0  0  0  0  0  0  0  0  0
   -6.2798   22.1107    4.2137 C   0  0  0  0  0  0  0  0  0  0  0  0
   -5.4312   22.1250    2.6483 S   0  0  0  0  0  0  0  0  0  0  0  0
   -4.1214   22.7072    2.8815 O   0  0  0  0  0  0  0  0  0  0  0  0
   -5.5293   20.7935    2.0813 O   0  0  0  0  0  0  0  0  0  0  0  0
 21 22  1  0  0  0
 22 23  2  0  0  0
 22 24  2  0  0  0
 22 15  1  0  0  0
 15 16  1  0  0  0
 16 17  1  0  0  0
 17 18  1  0  0  0
 18 19  1  0  0  0
 19 20  1  0  0  0
 20  1  1  0  0  0
  1  2  1  0  0  0
  2  3  2  0  0  0
  2  5  1  0  0  0
  5  6  2  0  0  0
  6  7  1  0  0  0
  7  8  2  0  0  0
  8  9  1  0  0  0
  8 10  1  0  0  0
 10 11  1  0  0  0
 11 12  1  0  0  0
 11 13  2  0  0  0
 20 15  1  0  0  0
  9  5  1  0  0  0
 13  7  1  0  0  0
  1  4  1  0  0  0
  9 14  1  0  0  0
M  END
> <minimizedAffinity>
-9.02467

$$$$
OCNT-2311225


 25 28  0  0  0  0  0  0  0  0999 V2000
   -2.2980   25.0040    3.7619 O   0  0  0  0  0  0  0  0  0  0  0  0
   -3.2593   25.7016    4.0652 C   0  0  0  0  0  0  0  0  0  0  0  0
   -3.1908   26.7458    4.9721 N   0  0  0  0  0  0  0  0  0  0  0  0
   -1.9270   27.0269    5.6522 C   0  0  0  0  0  0  0  0  0  0  0  0
   -2.1190   27.4101    7.1324 C   0  0  0  0  0  0  0  0  0  0  0  0
   -3.1450   28.4555    7.3201 N   0  0  0  0  0  0  0  0  0  0  0  0
   -3.9159   28.8512    6.1317 C   0  0  0  0  0  0  0  0  0  0  0  0
   -4.3245   27.6096    5.3189 C   0  0  0  0  0  0  0  0  0  0  0  0
   -2.8856   29.4695    8.2399 C   0  0  0  0  0  0  0  0  0  0  0  0
   -3.9091   30.1218    8.9427 C   0  0  0  0  0  0  0  0  0  0  0  0
   -3.7135   31.1194    9.8460 N   0  0  0  0  0  0  0  0  0  0  0  0
   -2.4272   31.4751   10.0222 C   0  0  0  0  0  0  0  0  0  0  0  0
   -1.3985   30.8653    9.3308 C   0  0  0  0  0  0  0  0  0  0  0  0
   -1.6062   29.8682    8.4373 N   0  0  0  0  0  0  0  0  0  0  0  0
   -4.5867   25.4431    3.4397 C   0  0  0  0  0  0  0  0  0  0  0  0
   -5.2788   26.5394    2.6741 C   0  0  0  0  0  0  0  0  0  0  0  0
   -4.7051   25.3621    1.9223 C   0  0  0  0  0  0  0  0  0  0  0  0
   -5.6384   24.3618    1.2621 C   0  0  0  0  0  0  0  0  0  0  0  0
   -6.5553   24.7622    0.2742 C   0  0  0  0  0  0  0  0  0  0  0  0
   -6.5974   26.0479   -0.1091 F   0  0  0  0  0  0  0  0  0  0  0  0
   -7.4383   23.8746   -0.3425 C   0  0  0  0  0  0  0  0  0  0  0  0
   -7.4394   22.5346    0.0241 C   0  0  0  0  0  0  0  0  0  0  0  0
   -6.5600   22.0973    1.0109 C   0  0  0  0  0  0  0  0  0  0  0  0
   -5.6785   23.0000    1.6232 C   0  0  0  0  0  0  0  0  0  0  0  0
   -4.6417   22.3752    2.8613 Cl  0  0  0  0  0  0  0  0  0  0  0  0
  1  2  2  0  0  0
  2 15  1  0  0  0
 15 16  1  0  0  0
 16 17  1  0  0  0
 17 18  1  0  0  0
 18 19  2  0  0  0
 19 20  1  0  0  0
 19 21  1  0  0  0
 21 22  2  0  0  0
 22 23  1  0  0  0
 23 24  2  0  0  0
 24 25  1  0  0  0
  2  3  1  0  0  0
  3  4  1  0  0  0
  4  5  1  0  0  0
  5  6  1  0  0  0
  6  9  1  0  0  0
  9 10  2  0  0  0
 10 11  1  0  0  0
 11 12  2  0  0  0
 12 13  1  0  0  0
 13 14  2  0  0  0
  6  7  1  0  0  0
  7  8  1  0  0  0
 17 15  1  0  0  0
 24 18  1  0  0  0
  8  3  1  0  0  0
 14  9  1  0  0  0
M  END
> <minimizedAffinity>
-9.78896

$$$$
OCNT-2311229


 24 27  0  0  0  0  0  0  0  0999 V2000
   -4.8393   25.4894    3.5060 C   0  0  0  0  0  0  0  0  0  0  0  0
   -3.3669   25.5812    3.9358 C   0  0  0  0  0  0  0  0  0  0  0  0
   -3.1786   26.2697    5.2882 C   0  0  0  0  0  0  0  0  0  0  0  0
   -4.1154   27.3747    5.4170 N   0  0  0  0  0  0  0  0  0  0  0  0
   -5.5448   27.0926    5.2997 C   0  0  0  0  0  0  0  0  0  0  0  0
   -5.7959   25.7194    4.6778 C   0  0  0  0  0  0  0  0  0  0  0  0
   -3.7912   28.3858    6.3151 C   0  0  0  0  0  0  0  0  0  0  0  0
   -4.7749   29.0982    6.8857 N   0  0  0  0  0  0  0  0  0  0  0  0
   -4.4268   30.0562    7.7648 C   0  0  0  0  0  0  0  0  0  0  0  0
   -3.1272   30.3523    8.1041 C   0  0  0  0  0  0  0  0  0  0  0  0
   -2.7929   31.4007    9.1184 C   0  0  0  0  0  0  0  0  0  0  0  0
   -1.3192   31.8074    9.0834 C   0  0  0  0  0  0  0  0  0  0  0  0
   -0.4236   30.5743    9.0128 C   0  0  0  0  0  0  0  0  0  0  0  0
   -0.7050   29.7830    7.7362 C   0  0  0  0  0  0  0  0  0  0  0  0
   -2.1744   29.5651    7.4889 C   0  0  0  0  0  0  0  0  0  0  0  0
   -2.4938   28.6013    6.5979 N   0  0  0  0  0  0  0  0  0  0  0  0
   -5.0320   22.9688    3.6152 C   0  0  0  0  0  0  0  0  0  0  0  0
   -5.0957   24.1959    2.8251 N   0  0  0  0  0  0  0  0  0  0  0  0
   -5.8545   24.2044    1.6514 C   0  0  0  0  0  0  0  0  0  0  0  0
   -6.7581   23.1645    1.3707 C   0  0  0  0  0  0  0  0  0  0  0  0
   -7.5403   23.1536    0.2099 C   0  0  0  0  0  0  0  0  0  0  0  0
   -7.4446   24.1963   -0.7026 C   0  0  0  0  0  0  0  0  0  0  0  0
   -6.5728   25.2482   -0.4476 C   0  0  0  0  0  0  0  0  0  0  0  0
   -5.7942   25.2512    0.7167 C   0  0  0  0  0  0  0  0  0  0  0  0
 17 18  1  0  0  0
 18 19  1  0  0  0
 19 20  2  0  0  0
 20 21  1  0  0  0
 21 22  2  0  0  0
 22 23  1  0  0  0
 23 24  2  0  0  0
 18  1  1  0  0  0
  1  2  1  0  0  0
  2  3  1  0  0  0
  3  4  1  0  0  0
  4  7  1  0  0  0
  7  8  2  0  0  0
  8  9  1  0  0  0
  9 10  2  0  0  0
 10 11  1  0  0  0
 11 12  1  0  0  0
 12 13  1  0  0  0
 13 14  1  0  0  0
 14 15  1  0  0  0
 15 16  2  0  0  0
  4  5  1  0  0  0
  5  6  1  0  0  0
 24 19  1  0  0  0
  6  1  1  0  0  0
 16  7  1  0  0  0
 15 10  1  0  0  0
M  END
> <minimizedAffinity>
-10.02352

$$$$
OCNT-2311231


 26 28  0  0  0  0  0  0  0  0999 V2000
   -3.2483   29.0227    7.7570 C   0  0  0  0  0  0  0  0  0  0  0  0
   -2.5241   28.0415    7.6502 O   0  0  0  0  0  0  0  0  0  0  0  0
   -4.4519   29.1627    7.0869 N   0  0  0  0  0  0  0  0  0  0  0  0
   -5.3184   30.3261    7.2573 C   0  0  0  0  0  0  0  0  0  0  0  0
   -6.7648   30.0094    6.9023 C   0  0  0  0  0  0  0  0  0  0  0  0
   -6.9127   29.4713    5.4771 C   0  0  0  0  0  0  0  0  0  0  0  0
   -5.6554   28.7403    4.9648 C   0  0  0  0  0  0  0  0  0  0  0  0
   -4.8627   28.1387    6.1319 C   0  0  0  0  0  0  0  0  0  0  0  0
   -2.9704   30.1018    8.5329 O   0  0  0  0  0  0  0  0  0  0  0  0
   -2.2170   32.3153    8.8749 C   0  0  0  0  0  0  0  0  0  0  0  0
   -1.8440   30.9664    8.2410 C   0  0  0  0  0  0  0  0  0  0  0  0
   -0.5604   30.4555    8.9020 C   0  0  0  0  0  0  0  0  0  0  0  0
   -1.6721   31.1678    6.7317 C   0  0  0  0  0  0  0  0  0  0  0  0
   -5.9865   27.6522    3.9265 C   0  0  0  0  0  0  0  0  0  0  0  0
   -4.9443   27.5615    2.9014 N   0  0  0  0  0  0  0  0  0  0  0  0
   -5.3657   27.6399    1.9722 H   0  0  0  0  0  0  0  0  0  0  0  0
   -4.2332   26.2741    2.9351 C   0  0  0  0  0  0  0  0  0  0  0  0
   -5.1661   25.1255    2.7085 C   0  0  0  0  0  0  0  0  0  0  0  0
   -5.4273   24.2522    3.7004 N   0  0  0  0  0  0  0  0  0  0  0  0
   -6.3075   23.3181    3.1667 O   0  0  0  0  0  0  0  0  0  0  0  0
   -6.5501   23.6438    1.8804 C   0  0  0  0  0  0  0  0  0  0  0  0
   -5.8647   24.7770    1.5304 C   0  0  0  0  0  0  0  0  0  0  0  0
   -5.9309   25.3562    0.1675 C   0  0  0  0  0  0  0  0  0  0  0  0
   -7.1324   24.7722   -0.6127 C   0  0  0  0  0  0  0  0  0  0  0  0
   -7.2795   23.2443   -0.4269 C   0  0  0  0  0  0  0  0  0  0  0  0
   -7.4692   22.8403    1.0516 C   0  0  0  0  0  0  0  0  0  0  0  0
 10 11  1  0  0  0
 11 12  1  0  0  0
 11 13  1  0  0  0
 11  9  1  0  0  0
  9  1  1  0  0  0
  1  2  2  0  0  0
  1  3  1  0  0  0
  3  4  1  0  0  0
  4  5  1  0  0  0
  5  6  1  0  0  0
  6  7  1  0  0  0
  7 14  1  0  0  0
 14 15  1  0  0  0
 15 17  1  0  0  0
 17 18  1  0  0  0
 18 19  2  0  0  0
 19 20  1  0  0  0
 20 21  1  0  0  0
 21 22  2  0  0  0
 22 23  1  0  0  0
 23 24  1  0  0  0
 24 25  1  0  0  0
 25 26  1  0  0  0
  7  8  1  0  0  0
  8  3  1  0  0  0
 22 18  1  0  0  0
 26 21  1  0  0  0
 15 16  1  0  0  0
M  END
> <minimizedAffinity>
-9.29571

$$$$
OCNT-2311233


 22 24  0  0  0  0  0  0  0  0999 V2000
   -2.4223   28.4064    7.2892 N   0  0  0  0  0  0  0  0  0  0  0  0
   -1.5281   27.2559    7.1969 C   0  0  0  0  0  0  0  0  0  0  0  0
   -2.3281   26.2235    6.4088 C   0  0  0  0  0  0  0  0  0  0  0  0
   -3.1386   27.0841    5.4506 C   0  0  0  0  0  0  0  0  0  0  0  0
   -3.5181   28.2995    6.3226 C   0  0  0  0  0  0  0  0  0  0  0  0
   -0.9722   30.1021    8.3610 C   0  0  0  0  0  0  0  0  0  0  0  0
   -0.8408   31.2224    9.2014 C   0  0  0  0  0  0  0  0  0  0  0  0
   -1.9424   31.7301    9.8787 C   0  0  0  0  0  0  0  0  0  0  0  0
   -3.1797   31.1299    9.7039 C   0  0  0  0  0  0  0  0  0  0  0  0
   -3.3123   30.0320    8.8434 C   0  0  0  0  0  0  0  0  0  0  0  0
   -2.2245   29.4808    8.1345 C   0  0  0  0  0  0  0  0  0  0  0  0
    1.1685   29.2223    8.5650 C   0  0  0  0  0  0  0  0  0  0  0  0
    0.1466   29.6775    7.6777 O   0  0  0  0  0  0  0  0  0  0  0  0
   -4.2773   26.3771    4.8905 N   0  0  0  0  0  0  0  0  0  0  0  0
   -4.3188   26.0891    3.5477 C   0  0  0  0  0  0  0  0  0  0  0  0
   -3.3886   26.2482    2.7710 O   0  0  0  0  0  0  0  0  0  0  0  0
   -5.1495   26.3990    5.4042 H   0  0  0  0  0  0  0  0  0  0  0  0
   -5.6073   25.5384    3.0845 C   0  0  0  0  0  0  0  0  0  0  0  0
   -6.3183   24.4791    3.8975 C   0  0  0  0  0  0  0  0  0  0  0  0
   -5.7016   24.1236    2.5786 C   0  0  0  0  0  0  0  0  0  0  0  0
   -6.7807   23.8286    1.2166 Cl  0  0  0  0  0  0  0  0  0  0  0  0
   -4.2950   23.0726    2.5860 Cl  0  0  0  0  0  0  0  0  0  0  0  0
 12 13  1  0  0  0
 13  6  1  0  0  0
  6  7  2  0  0  0
  7  8  1  0  0  0
  8  9  2  0  0  0
  9 10  1  0  0  0
 10 11  2  0  0  0
 11  1  1  0  0  0
  1  2  1  0  0  0
  2  3  1  0  0  0
  3  4  1  0  0  0
  4 14  1  0  0  0
 14 15  1  0  0  0
 15 16  2  0  0  0
 15 18  1  0  0  0
 18 19  1  0  0  0
 19 20  1  0  0  0
 20 21  1  0  0  0
 20 22  1  0  0  0
  4  5  1  0  0  0
 11  6  1  0  0  0
  5  1  1  0  0  0
 20 18  1  0  0  0
 14 17  1  0  0  0
M  END
> <minimizedAffinity>
-8.33319

$$$$
OCNT-2311240


 27 29  0  0  0  0  0  0  0  0999 V2000
   -1.5733   26.6910    5.2605 O   0  0  0  0  0  0  0  0  0  0  0  0
   -2.4124   27.0824    6.0633 C   0  0  0  0  0  0  0  0  0  0  0  0
   -3.7802   27.1528    5.8522 N   0  0  0  0  0  0  0  0  0  0  0  0
   -4.3407   27.5626    6.5893 H   0  0  0  0  0  0  0  0  0  0  0  0
   -4.4955   26.7391    4.7066 C   0  0  0  0  0  0  0  0  0  0  0  0
   -5.1172   27.6140    3.8165 C   0  0  0  0  0  0  0  0  0  0  0  0
   -5.7994   27.1212    2.7016 C   0  0  0  0  0  0  0  0  0  0  0  0
   -5.8645   25.7481    2.4654 C   0  0  0  0  0  0  0  0  0  0  0  0
   -5.2470   24.8509    3.3431 C   0  0  0  0  0  0  0  0  0  0  0  0
   -4.5662   25.3587    4.4615 C   0  0  0  0  0  0  0  0  0  0  0  0
   -5.3080   23.4171    3.1165 C   0  0  0  0  0  0  0  0  0  0  0  0
   -5.5317   22.8113    1.8978 C   0  0  0  0  0  0  0  0  0  0  0  0
   -5.4922   21.4652    2.1226 N   0  0  0  0  0  0  0  0  0  0  0  0
   -5.2548   21.1441    3.4042 N   0  0  0  0  0  0  0  0  0  0  0  0
   -5.1447   22.3304    4.0075 C   0  0  0  0  0  0  0  0  0  0  0  0
   -5.6132   20.7128    1.4523 H   0  0  0  0  0  0  0  0  0  0  0  0
   -2.0118   27.6099    7.4287 C   0  0  0  0  0  0  0  0  0  0  0  0
   -0.5440   28.0352    7.5019 C   0  0  0  0  0  0  0  0  0  0  0  0
   -0.5548   29.1818    8.4805 C   0  0  0  0  0  0  0  0  0  0  0  0
    0.4328   29.7156    8.9544 O   0  0  0  0  0  0  0  0  0  0  0  0
   -1.8731   29.5342    8.7246 N   0  0  0  0  0  0  0  0  0  0  0  0
   -2.7625   28.8837    7.7932 C   0  0  0  0  0  0  0  0  0  0  0  0
   -2.2204   30.7954    9.3866 C   0  0  0  0  0  0  0  0  0  0  0  0
   -1.8802   32.0696    8.6099 C   0  0  0  0  0  0  0  0  0  0  0  0
   -1.6958   31.8410    7.2937 F   0  0  0  0  0  0  0  0  0  0  0  0
   -2.8675   32.9877    8.7337 F   0  0  0  0  0  0  0  0  0  0  0  0
   -0.7487   32.6327    9.0938 F   0  0  0  0  0  0  0  0  0  0  0  0
  1  2  2  0  0  0
  2  3  1  0  0  0
  3  5  1  0  0  0
  5  6  2  0  0  0
  6  7  1  0  0  0
  7  8  2  0  0  0
  8  9  1  0  0  0
  9 11  1  0  0  0
 11 12  2  0  0  0
 12 13  1  0  0  0
 13 14  1  0  0  0
 14 15  2  0  0  0
  9 10  2  0  0  0
  2 17  1  0  0  0
 17 18  1  0  0  0
 18 19  1  0  0  0
 19 20  2  0  0  0
 19 21  1  0  0  0
 21 23  1  0  0  0
 23 24  1  0  0  0
 24 25  1  0  0  0
 24 26  1  0  0  0
 24 27  1  0  0  0
 21 22  1  0  0  0
 10  5  1  0  0  0
 22 17  1  0  0  0
 15 11  1  0  0  0
  3  4  1  0  0  0
 13 16  1  0  0  0
M  END
> <minimizedAffinity>
-9.07727

$$$$
OCNT-2311245


 24 26  0  0  0  0  0  0  0  0999 V2000
   -2.2963   26.1389    7.2702 O   0  0  0  0  0  0  0  0  0  0  0  0
   -2.2582   27.2822    6.8383 C   0  0  0  0  0  0  0  0  0  0  0  0
   -2.8574   27.6839    5.6620 N   0  0  0  0  0  0  0  0  0  0  0  0
   -2.7045   28.6251    5.3244 H   0  0  0  0  0  0  0  0  0  0  0  0
   -1.5367   28.3507    7.5661 C   0  0  0  0  0  0  0  0  0  0  0  0
   -0.1331   28.3899    7.5183 C   0  0  0  0  0  0  0  0  0  0  0  0
    0.5682   29.3784    8.1918 C   0  0  0  0  0  0  0  0  0  0  0  0
   -0.1203   30.3480    8.9232 C   0  0  0  0  0  0  0  0  0  0  0  0
   -1.5362   30.3401    8.9895 C   0  0  0  0  0  0  0  0  0  0  0  0
   -2.2346   29.3350    8.3032 C   0  0  0  0  0  0  0  0  0  0  0  0
   -3.9393   29.5094    8.5454 S   0  0  0  0  0  0  0  0  0  0  0  0
   -3.7499   30.8954    9.5132 C   0  0  0  0  0  0  0  0  0  0  0  0
   -2.4279   31.2302    9.6779 C   0  0  0  0  0  0  0  0  0  0  0  0
   -3.5462   26.7474    4.7898 C   0  0  0  0  0  0  0  0  0  0  0  0
   -5.0843   26.7527    5.0023 C   0  0  0  0  0  0  0  0  0  0  0  0
   -5.6757   28.1607    5.0426 C   0  0  0  0  0  0  0  0  0  0  0  0
   -5.8949   28.5152    3.5803 C   0  0  0  0  0  0  0  0  0  0  0  0
   -5.9264   27.1746    2.8501 C   0  0  0  0  0  0  0  0  0  0  0  0
   -5.8972   26.1623    3.9137 N   0  0  0  0  0  0  0  0  0  0  0  0
   -5.4547   24.8377    3.4803 C   0  0  0  0  0  0  0  0  0  0  0  0
   -6.4361   23.7043    3.7946 C   0  0  0  0  0  0  0  0  0  0  0  0
   -6.6819   23.4480    5.2716 C   0  0  0  0  0  0  0  0  0  0  0  0
   -7.6431   24.3871    5.7456 O   0  0  0  0  0  0  0  0  0  0  0  0
   -7.8487   24.1409    6.6644 H   0  0  0  0  0  0  0  0  0  0  0  0
  1  2  2  0  0  0
  2  3  1  0  0  0
  3 14  1  0  0  0
 14 15  1  0  0  0
 15 16  1  0  0  0
 16 17  1  0  0  0
 17 18  1  0  0  0
 18 19  1  0  0  0
 19 20  1  0  0  0
 20 21  1  0  0  0
 21 22  1  0  0  0
 22 23  1  0  0  0
  2  5  1  0  0  0
  5  6  1  0  0  0
  6  7  2  0  0  0
  7  8  1  0  0  0
  8  9  2  0  0  0
  9 10  1  0  0  0
 10 11  1  0  0  0
 11 12  1  0  0  0
 12 13  2  0  0  0
 19 15  1  0  0  0
 10  5  2  0  0  0
 13  9  1  0  0  0
  3  4  1  0  0  0
 23 24  1  0  0  0
M  END
> <minimizedAffinity>
-7.88247

$$$$
OCNT-2311251


 22 25  0  0  0  0  0  0  0  0999 V2000
    0.2076   29.7471    8.6712 C   0  0  0  0  0  0  0  0  0  0  0  0
   -0.4862   29.2706    7.3989 C   0  0  0  0  0  0  0  0  0  0  0  0
    0.5397   28.9863    6.2949 C   0  0  0  0  0  0  0  0  0  0  0  0
   -1.4897   28.1169    7.6234 C   0  0  0  0  0  0  0  0  0  0  0  0
   -2.3991   28.8201    6.7726 N   0  0  0  0  0  0  0  0  0  0  0  0
   -1.7227   30.0816    6.8901 C   0  0  0  0  0  0  0  0  0  0  0  0
   -3.7370   28.4963    6.5139 C   0  0  0  0  0  0  0  0  0  0  0  0
   -4.6894   29.0899    7.2793 N   0  0  0  0  0  0  0  0  0  0  0  0
   -5.9807   28.8169    7.0562 C   0  0  0  0  0  0  0  0  0  0  0  0
   -6.4854   27.9959    6.1372 N   0  0  0  0  0  0  0  0  0  0  0  0
   -5.5511   27.3763    5.3784 C   0  0  0  0  0  0  0  0  0  0  0  0
   -4.1797   27.5894    5.5347 C   0  0  0  0  0  0  0  0  0  0  0  0
   -3.2995   26.6009    4.4238 S   0  0  0  0  0  0  0  0  0  0  0  0
   -4.7128   25.9640    3.7571 C   0  0  0  0  0  0  0  0  0  0  0  0
   -4.7148   24.6914    2.3319 Br  0  0  0  0  0  0  0  0  0  0  0  0
   -5.8519   26.4425    4.3425 C   0  0  0  0  0  0  0  0  0  0  0  0
   -2.4401   31.1379    7.8498 C   0  0  0  0  0  0  0  0  0  0  0  0
   -3.2411   32.1592    7.3047 C   0  0  0  0  0  0  0  0  0  0  0  0
   -3.8705   33.0807    8.1306 C   0  0  0  0  0  0  0  0  0  0  0  0
   -3.7669   33.0747    9.4722 N   0  0  0  0  0  0  0  0  0  0  0  0
   -3.0021   32.1033   10.0050 C   0  0  0  0  0  0  0  0  0  0  0  0
   -2.3378   31.1432    9.2535 C   0  0  0  0  0  0  0  0  0  0  0  0
  1  2  1  0  0  0
  2  3  1  0  0  0
  2  4  1  0  0  0
  4  5  1  0  0  0
  5  7  1  0  0  0
  7  8  1  0  0  0
  8  9  2  0  0  0
  9 10  1  0  0  0
 10 11  2  0  0  0
 11 12  1  0  0  0
 12 13  1  0  0  0
 13 14  1  0  0  0
 14 15  1  0  0  0
 14 16  2  0  0  0
  5  6  1  0  0  0
  6 17  1  0  0  0
 17 18  2  0  0  0
 18 19  1  0  0  0
 19 20  2  0  0  0
 20 21  1  0  0  0
 21 22  2  0  0  0
  6  2  1  0  0  0
 22 17  1  0  0  0
 12  7  2  0  0  0
 16 11  1  0  0  0
M  END
> <minimizedAffinity>
-8.72279

$$$$
OCNT-2311253


 27 29  0  0  0  0  0  0  0  0999 V2000
   -1.1497   26.6293    5.8558 N   0  0  0  0  0  0  0  0  0  0  0  0
   -2.2062   26.4072    6.8356 C   0  0  0  0  0  0  0  0  0  0  0  0
   -0.2900   27.7233    5.8493 C   0  0  0  0  0  0  0  0  0  0  0  0
    0.5079   27.9416    4.9388 O   0  0  0  0  0  0  0  0  0  0  0  0
   -0.3666   28.7057    6.9460 C   0  0  0  0  0  0  0  0  0  0  0  0
    0.6390   28.7182    7.9103 C   0  0  0  0  0  0  0  0  0  0  0  0
    0.5903   29.6647    8.9290 C   0  0  0  0  0  0  0  0  0  0  0  0
   -0.4515   30.5994    8.9751 C   0  0  0  0  0  0  0  0  0  0  0  0
   -1.4561   30.6033    7.9924 C   0  0  0  0  0  0  0  0  0  0  0  0
   -1.4032   29.6497    6.9663 C   0  0  0  0  0  0  0  0  0  0  0  0
   -2.5124   31.5608    8.0406 N   0  0  0  0  0  0  0  0  0  0  0  0
   -2.7804   32.4637    9.0488 C   0  0  0  0  0  0  0  0  0  0  0  0
   -3.9016   33.1578    8.6580 C   0  0  0  0  0  0  0  0  0  0  0  0
   -4.3416   32.7198    7.4438 N   0  0  0  0  0  0  0  0  0  0  0  0
   -3.4933   31.7773    7.0940 C   0  0  0  0  0  0  0  0  0  0  0  0
   -1.1966   25.8081    4.6439 C   0  0  0  0  0  0  0  0  0  0  0  0
   -2.8980   24.7142    3.3095 N   0  0  0  0  0  0  0  0  0  0  0  0
   -2.5888   25.8728    4.0055 C   0  0  0  0  0  0  0  0  0  0  0  0
   -3.2757   26.8871    4.0929 O   0  0  0  0  0  0  0  0  0  0  0  0
   -2.1506   24.0195    3.2563 H   0  0  0  0  0  0  0  0  0  0  0  0
   -7.6095   23.7309    0.2095 C   0  0  0  0  0  0  0  0  0  0  0  0
   -6.3708   23.9566    1.0246 C   0  0  0  0  0  0  0  0  0  0  0  0
   -5.5057   25.0108    0.7166 C   0  0  0  0  0  0  0  0  0  0  0  0
   -4.3640   25.2382    1.4911 C   0  0  0  0  0  0  0  0  0  0  0  0
   -4.0702   24.4210    2.5894 C   0  0  0  0  0  0  0  0  0  0  0  0
   -4.9384   23.3760    2.9036 C   0  0  0  0  0  0  0  0  0  0  0  0
   -6.0844   23.1500    2.1306 C   0  0  0  0  0  0  0  0  0  0  0  0
 21 22  1  0  0  0
 22 23  1  0  0  0
 23 24  2  0  0  0
 24 25  1  0  0  0
 25 17  1  0  0  0
 17 18  1  0  0  0
 18 19  2  0  0  0
 18 16  1  0  0  0
 16  1  1  0  0  0
  1  2  1  0  0  0
  1  3  1  0  0  0
  3  4  2  0  0  0
  3  5  1  0  0  0
  5  6  1  0  0  0
  6  7  2  0  0  0
  7  8  1  0  0  0
  8  9  2  0  0  0
  9 11  1  0  0  0
 11 12  1  0  0  0
 12 13  2  0  0  0
 13 14  1  0  0  0
 14 15  2  0  0  0
  9 10  1  0  0  0
 25 26  2  0  0  0
 26 27  1  0  0  0
 27 22  2  0  0  0
 10  5  2  0  0  0
 15 11  1  0  0  0
 17 20  1  0  0  0
M  END
> <minimizedAffinity>
-9.24087

$$$$
OCNT-2311256


 26 28  0  0  0  0  0  0  0  0999 V2000
   -6.0573   26.0479    3.5763 N   0  0  0  0  0  0  0  0  0  0  0  0
   -5.9198   25.7361    4.5353 H   0  0  0  0  0  0  0  0  0  0  0  0
   -5.2330   25.2184    2.6801 C   0  0  0  0  0  0  0  0  0  0  0  0
   -4.5767   24.1084    3.5193 C   0  0  0  0  0  0  0  0  0  0  0  0
   -5.6339   23.1463    4.0543 C   0  0  0  0  0  0  0  0  0  0  0  0
   -6.3979   22.4172    2.9191 C   0  0  0  0  0  0  0  0  0  0  0  0
   -7.7349   21.9193    3.5110 C   0  0  0  0  0  0  0  0  0  0  0  0
   -5.5648   21.1872    2.4854 C   0  0  0  0  0  0  0  0  0  0  0  0
   -6.6348   23.3062    1.6876 C   0  0  0  0  0  0  0  0  0  0  0  0
   -7.3987   22.8139    0.6078 C   0  0  0  0  0  0  0  0  0  0  0  0
   -7.5583   23.5455   -0.5695 C   0  0  0  0  0  0  0  0  0  0  0  0
   -6.9443   24.7822   -0.7029 C   0  0  0  0  0  0  0  0  0  0  0  0
   -6.1881   25.2921    0.3496 C   0  0  0  0  0  0  0  0  0  0  0  0
   -6.0399   24.5825    1.5586 C   0  0  0  0  0  0  0  0  0  0  0  0
   -5.8084   27.4820    3.5335 C   0  0  0  0  0  0  0  0  0  0  0  0
   -5.6944   28.9462    6.9882 C   0  0  0  0  0  0  0  0  0  0  0  0
   -4.3554   28.8170    6.6320 C   0  0  0  0  0  0  0  0  0  0  0  0
   -3.1049   29.1463    7.3682 C   0  0  0  0  0  0  0  0  0  0  0  0
   -4.3039   28.2897    5.3627 N   0  0  0  0  0  0  0  0  0  0  0  0
   -5.5702   28.0554    4.8899 C   0  0  0  0  0  0  0  0  0  0  0  0
   -6.4477   28.4715    5.8709 C   0  0  0  0  0  0  0  0  0  0  0  0
   -3.4524   28.1006    4.8489 H   0  0  0  0  0  0  0  0  0  0  0  0
   -6.2654   29.4607    8.2337 C   0  0  0  0  0  0  0  0  0  0  0  0
   -6.3969   28.7685    9.2376 O   0  0  0  0  0  0  0  0  0  0  0  0
   -5.6302   31.6799    8.6276 C   0  0  0  0  0  0  0  0  0  0  0  0
   -6.6297   30.7746    8.1617 O   0  0  0  0  0  0  0  0  0  0  0  0
 25 26  1  0  0  0
 26 23  1  0  0  0
 23 24  2  0  0  0
 23 16  1  0  0  0
 16 17  2  0  0  0
 17 18  1  0  0  0
 17 19  1  0  0  0
 19 20  1  0  0  0
 20 15  1  0  0  0
 15  1  1  0  0  0
  1  3  1  0  0  0
  3  4  1  0  0  0
  4  5  1  0  0  0
  5  6  1  0  0  0
  6  7  1  0  0  0
  6  8  1  0  0  0
  6  9  1  0  0  0
  9 10  2  0  0  0
 10 11  1  0  0  0
 11 12  2  0  0  0
 12 13  1  0  0  0
 13 14  2  0  0  0
 20 21  2  0  0  0
 21 16  1  0  0  0
 14  3  1  0  0  0
 14  9  1  0  0  0
 19 22  1  0  0  0
  1  2  1  0  0  0
M  END
> <minimizedAffinity>
-9.28916

$$$$
OCNT-2311260


 33 36  0  0  0  0  0  0  0  0999 V2000
   -7.1230   28.8542    6.7511 C   0  0  0  0  0  0  0  0  0  0  0  0
   -7.3123   30.3708    6.5952 C   0  0  0  0  0  0  0  0  0  0  0  0
   -5.5611   26.9729    3.1530 C   0  0  0  0  0  0  0  0  0  0  0  0
   -5.8437   26.2190    4.2927 C   0  0  0  0  0  0  0  0  0  0  0  0
   -6.3391   26.8300    5.4473 C   0  0  0  0  0  0  0  0  0  0  0  0
   -6.5792   28.2137    5.4807 C   0  0  0  0  0  0  0  0  0  0  0  0
   -6.2734   28.9628    4.3348 C   0  0  0  0  0  0  0  0  0  0  0  0
   -5.7770   28.3468    3.1785 C   0  0  0  0  0  0  0  0  0  0  0  0
   -5.0957   26.2499    2.0858 O   0  0  0  0  0  0  0  0  0  0  0  0
   -4.3108   25.0945    2.4001 C   0  0  0  0  0  0  0  0  0  0  0  0
   -7.6903   22.7782   -0.5171 C   0  0  0  0  0  0  0  0  0  0  0  0
   -6.6629   22.7044    0.5767 C   0  0  0  0  0  0  0  0  0  0  0  0
   -6.4255   21.5027    1.2544 C   0  0  0  0  0  0  0  0  0  0  0  0
   -5.4926   21.4475    2.2888 C   0  0  0  0  0  0  0  0  0  0  0  0
   -4.7945   22.5961    2.6645 C   0  0  0  0  0  0  0  0  0  0  0  0
   -5.0164   23.8127    2.0053 C   0  0  0  0  0  0  0  0  0  0  0  0
   -5.9639   23.8542    0.9668 C   0  0  0  0  0  0  0  0  0  0  0  0
   -6.2498   28.4867    7.8750 N   0  0  0  0  0  0  0  0  0  0  0  0
   -5.3527   28.1593    7.5053 H   0  0  0  0  0  0  0  0  0  0  0  0
   -6.0034   29.6044    8.8023 C   0  0  0  0  0  0  0  0  0  0  0  0
   -4.5121   29.9259    8.7690 C   0  0  0  0  0  0  0  0  0  0  0  0
   -3.6885   29.1379    8.1587 N   0  0  0  0  0  0  0  0  0  0  0  0
   -2.2991   29.3119    8.2524 C   0  0  0  0  0  0  0  0  0  0  0  0
   -1.4944   28.2762    7.7620 C   0  0  0  0  0  0  0  0  0  0  0  0
   -0.0979   28.3400    7.8450 C   0  0  0  0  0  0  0  0  0  0  0  0
    0.5188   29.4432    8.4267 C   0  0  0  0  0  0  0  0  0  0  0  0
   -0.2609   30.4854    8.9205 C   0  0  0  0  0  0  0  0  0  0  0  0
   -1.6555   30.4051    8.8218 C   0  0  0  0  0  0  0  0  0  0  0  0
   -2.6327   31.7228    9.4043 S   0  0  0  0  0  0  0  0  0  0  0  0
   -2.6482   32.7482    8.3851 O   0  0  0  0  0  0  0  0  0  0  0  0
   -2.2359   32.0141   10.7638 O   0  0  0  0  0  0  0  0  0  0  0  0
   -4.1385   31.0638    9.4901 N   0  0  0  0  0  0  0  0  0  0  0  0
   -4.6911   31.2985   10.3173 H   0  0  0  0  0  0  0  0  0  0  0  0
 11 12  1  0  0  0
 12 13  1  0  0  0
 13 14  2  0  0  0
 14 15  1  0  0  0
 15 16  2  0  0  0
 16 10  1  0  0  0
 10  9  1  0  0  0
  9  3  1  0  0  0
  3  4  1  0  0  0
  4  5  2  0  0  0
  5  6  1  0  0  0
  6  1  1  0  0  0
  1  2  1  0  0  0
  1 18  1  0  0  0
 18 20  1  0  0  0
 20 21  1  0  0  0
 21 22  2  0  0  0
 22 23  1  0  0  0
 23 24  2  0  0  0
 24 25  1  0  0  0
 25 26  2  0  0  0
 26 27  1  0  0  0
 27 28  2  0  0  0
 28 29  1  0  0  0
 29 30  2  0  0  0
 29 31  2  0  0  0
 29 32  1  0  0  0
  6  7  2  0  0  0
  7  8  1  0  0  0
 16 17  1  0  0  0
 17 12  2  0  0  0
  8  3  2  0  0  0
 32 21  1  0  0  0
 28 23  1  0  0  0
 18 19  1  0  0  0
 32 33  1  0  0  0
M  END
> <minimizedAffinity>
-11.85378

$$$$
OCNT-2311263


 30 32  0  0  0  0  0  0  0  0999 V2000
   -4.5261   28.0211    6.3281 N   0  0  0  0  0  0  0  0  0  0  0  0
   -4.7739   27.5315    5.0639 C   0  0  0  0  0  0  0  0  0  0  0  0
   -5.4366   28.1416    4.2244 O   0  0  0  0  0  0  0  0  0  0  0  0
   -3.6920   27.6660    6.7867 H   0  0  0  0  0  0  0  0  0  0  0  0
   -2.0667   30.5275    8.5723 C   0  0  0  0  0  0  0  0  0  0  0  0
   -2.9511   30.4797    9.5833 N   0  0  0  0  0  0  0  0  0  0  0  0
   -4.0559   30.0622    8.9490 N   0  0  0  0  0  0  0  0  0  0  0  0
   -5.3070   29.8548    9.6427 C   0  0  0  0  0  0  0  0  0  0  0  0
   -6.2656   28.9962    8.8191 C   0  0  0  0  0  0  0  0  0  0  0  0
   -6.2944   29.4612    7.3578 C   0  0  0  0  0  0  0  0  0  0  0  0
   -4.9032   29.3792    6.6936 C   0  0  0  0  0  0  0  0  0  0  0  0
   -3.8386   29.8811    7.6148 C   0  0  0  0  0  0  0  0  0  0  0  0
   -2.5728   30.1319    7.3527 N   0  0  0  0  0  0  0  0  0  0  0  0
   -0.6431   30.9513    8.7568 C   0  0  0  0  0  0  0  0  0  0  0  0
    0.7897   29.2412    7.9380 C   0  0  0  0  0  0  0  0  0  0  0  0
    0.2586   29.8821    9.0901 O   0  0  0  0  0  0  0  0  0  0  0  0
   -4.1384   26.1591    4.7632 C   0  0  0  0  0  0  0  0  0  0  0  0
   -2.6810   26.1146    5.2072 C   0  0  0  0  0  0  0  0  0  0  0  0
   -4.9264   25.1455    5.4587 N   0  0  0  0  0  0  0  0  0  0  0  0
   -6.0046   24.5489    4.8428 C   0  0  0  0  0  0  0  0  0  0  0  0
   -6.2914   24.7738    3.6748 O   0  0  0  0  0  0  0  0  0  0  0  0
   -6.6462   23.6922    5.7076 N   0  0  0  0  0  0  0  0  0  0  0  0
   -4.9950   25.2838    6.4609 H   0  0  0  0  0  0  0  0  0  0  0  0
   -6.1600   23.5100    6.5721 H   0  0  0  0  0  0  0  0  0  0  0  0
   -7.8153   22.9425    5.4726 C   0  0  0  0  0  0  0  0  0  0  0  0
   -7.8545   21.7838    4.6952 C   0  0  0  0  0  0  0  0  0  0  0  0
   -9.0592   21.0992    4.5036 C   0  0  0  0  0  0  0  0  0  0  0  0
  -10.2344   21.5692    5.0850 C   0  0  0  0  0  0  0  0  0  0  0  0
  -10.2071   22.7263    5.8584 C   0  0  0  0  0  0  0  0  0  0  0  0
   -9.0035   23.4101    6.0498 C   0  0  0  0  0  0  0  0  0  0  0  0
 15 16  1  0  0  0
 16 14  1  0  0  0
 14  5  1  0  0  0
  5  6  2  0  0  0
  6  7  1  0  0  0
  7  8  1  0  0  0
  8  9  1  0  0  0
  9 10  1  0  0  0
 10 11  1  0  0  0
 11  1  1  0  0  0
  1  2  1  0  0  0
  2  3  2  0  0  0
  2 17  1  0  0  0
 17 18  1  0  0  0
 17 19  1  0  0  0
 19 20  1  0  0  0
 20 21  2  0  0  0
 20 22  1  0  0  0
 22 25  1  0  0  0
 25 26  2  0  0  0
 26 27  1  0  0  0
 27 28  2  0  0  0
 28 29  1  0  0  0
 29 30  2  0  0  0
 11 12  1  0  0  0
 12 13  2  0  0  0
 13  5  1  0  0  0
 12  7  1  0  0  0
 30 25  1  0  0  0
  1  4  1  0  0  0
 19 23  1  0  0  0
 22 24  1  0  0  0
M  END
> <minimizedAffinity>
-8.47684

$$$$
OCNT-2311283


 25 27  0  0  0  0  0  0  0  0999 V2000
   -4.3418   26.3584    4.7546 N   0  0  0  0  0  0  0  0  0  0  0  0
   -2.5555   28.6988    7.9012 C   0  0  0  0  0  0  0  0  0  0  0  0
   -1.1764   28.6454    7.9402 C   0  0  0  0  0  0  0  0  0  0  0  0
   -0.4152   27.9438    7.0636 N   0  0  0  0  0  0  0  0  0  0  0  0
   -1.0106   27.2500    6.0910 C   0  0  0  0  0  0  0  0  0  0  0  0
   -0.2229   26.5873    5.2585 N   0  0  0  0  0  0  0  0  0  0  0  0
   -0.8109   25.8914    4.2859 C   0  0  0  0  0  0  0  0  0  0  0  0
   -2.1235   25.7882    4.0695 N   0  0  0  0  0  0  0  0  0  0  0  0
   -2.9220   26.4653    4.9105 C   0  0  0  0  0  0  0  0  0  0  0  0
   -2.4007   27.2305    5.9688 C   0  0  0  0  0  0  0  0  0  0  0  0
   -3.1701   27.9757    6.8917 C   0  0  0  0  0  0  0  0  0  0  0  0
   -2.9257   30.6463    9.1983 C   0  0  0  0  0  0  0  0  0  0  0  0
   -3.3846   29.3796    8.7396 O   0  0  0  0  0  0  0  0  0  0  0  0
   -4.8115   27.1134    3.5663 C   0  0  0  0  0  0  0  0  0  0  0  0
   -6.0756   27.9555    3.8391 C   0  0  0  0  0  0  0  0  0  0  0  0
   -6.4285   28.0125    5.3257 C   0  0  0  0  0  0  0  0  0  0  0  0
   -6.0162   29.3616    3.2445 C   0  0  0  0  0  0  0  0  0  0  0  0
   -4.6566   24.9093    4.6974 C   0  0  0  0  0  0  0  0  0  0  0  0
   -5.3994   24.5319    3.3998 C   0  0  0  0  0  0  0  0  0  0  0  0
   -6.6388   23.6675    3.6725 C   0  0  0  0  0  0  0  0  0  0  0  0
   -7.2821   23.1824    2.3712 C   0  0  0  0  0  0  0  0  0  0  0  0
   -6.3587   22.4876    1.4672 N   0  0  0  0  0  0  0  0  0  0  0  0
   -6.0215   21.1475    1.9413 C   0  0  0  0  0  0  0  0  0  0  0  0
   -5.1695   23.3008    1.1940 C   0  0  0  0  0  0  0  0  0  0  0  0
   -4.4457   23.7879    2.4512 C   0  0  0  0  0  0  0  0  0  0  0  0
 12 13  1  0  0  0
 13  2  1  0  0  0
  2  3  1  0  0  0
  3  4  2  0  0  0
  4  5  1  0  0  0
  5  6  2  0  0  0
  6  7  1  0  0  0
  7  8  2  0  0  0
  8  9  1  0  0  0
  9  1  1  0  0  0
  1 14  1  0  0  0
 14 15  1  0  0  0
 15 16  1  0  0  0
 15 17  1  0  0  0
  1 18  1  0  0  0
 18 19  1  0  0  0
 19 20  1  0  0  0
 20 21  1  0  0  0
 21 22  1  0  0  0
 22 23  1  0  0  0
 22 24  1  0  0  0
 24 25  1  0  0  0
  9 10  2  0  0  0
 10 11  1  0  0  0
 11  2  2  0  0  0
 10  5  1  0  0  0
 25 19  1  0  0  0
M  END
> <minimizedAffinity>
-8.19530

$$$$
OCNT-2311302


 24 27  0  0  0  0  0  0  0  0999 V2000
   -4.7766   28.8964    6.4016 C   0  0  0  0  0  0  0  0  0  0  0  0
   -4.0991   27.8440    5.9055 C   0  0  0  0  0  0  0  0  0  0  0  0
   -4.4290   27.1569    4.6093 C   0  0  0  0  0  0  0  0  0  0  0  0
   -5.7522   27.4939    4.0727 N   0  0  0  0  0  0  0  0  0  0  0  0
   -5.9673   28.9437    4.1428 C   0  0  0  0  0  0  0  0  0  0  0  0
   -5.9583   29.4186    5.6047 C   0  0  0  0  0  0  0  0  0  0  0  0
   -6.2900   28.7172    8.9908 O   0  0  0  0  0  0  0  0  0  0  0  0
   -5.2647   29.3569    8.8098 C   0  0  0  0  0  0  0  0  0  0  0  0
   -4.6235   30.0760    9.8266 N   0  0  0  0  0  0  0  0  0  0  0  0
   -3.5045   30.7017    9.3129 C   0  0  0  0  0  0  0  0  0  0  0  0
   -2.6239   31.5295    9.9776 C   0  0  0  0  0  0  0  0  0  0  0  0
   -1.5954   32.0938    9.2243 C   0  0  0  0  0  0  0  0  0  0  0  0
   -1.4929   31.8312    7.8465 C   0  0  0  0  0  0  0  0  0  0  0  0
   -2.4064   30.9850    7.1995 C   0  0  0  0  0  0  0  0  0  0  0  0
   -3.4024   30.3943    7.9553 C   0  0  0  0  0  0  0  0  0  0  0  0
   -4.4772   29.5235    7.6101 N   0  0  0  0  0  0  0  0  0  0  0  0
   -4.9703   30.1198   10.7704 H   0  0  0  0  0  0  0  0  0  0  0  0
   -5.9070   26.9602    2.7070 C   0  0  0  0  0  0  0  0  0  0  0  0
   -5.4014   25.5160    2.5209 C   0  0  0  0  0  0  0  0  0  0  0  0
   -6.1053   24.7648    1.4228 C   0  0  0  0  0  0  0  0  0  0  0  0
   -6.6231   23.4880    1.5456 C   0  0  0  0  0  0  0  0  0  0  0  0
   -7.3638   22.9287    0.1103 S   0  0  0  0  0  0  0  0  0  0  0  0
   -7.0086   24.3879   -0.7034 C   0  0  0  0  0  0  0  0  0  0  0  0
   -6.3383   25.2796    0.1042 C   0  0  0  0  0  0  0  0  0  0  0  0
  7  8  2  0  0  0
  8  9  1  0  0  0
  9 10  1  0  0  0
 10 11  2  0  0  0
 11 12  1  0  0  0
 12 13  2  0  0  0
 13 14  1  0  0  0
 14 15  2  0  0  0
 15 16  1  0  0  0
 16  1  1  0  0  0
  1  2  2  0  0  0
  2  3  1  0  0  0
  3  4  1  0  0  0
  4 18  1  0  0  0
 18 19  1  0  0  0
 19 20  1  0  0  0
 20 21  2  0  0  0
 21 22  1  0  0  0
 22 23  1  0  0  0
 23 24  2  0  0  0
  4  5  1  0  0  0
  5  6  1  0  0  0
 16  8  1  0  0  0
  6  1  1  0  0  0
 15 10  1  0  0  0
 24 20  1  0  0  0
  9 17  1  0  0  0
M  END
> <minimizedAffinity>
-8.88262

$$$$
OCNT-2311311


 25 28  0  0  0  0  0  0  0  0999 V2000
   -4.3298   26.1951    3.2099 C   0  0  0  0  0  0  0  0  0  0  0  0
   -3.0884   25.7753    3.3158 N   0  0  0  0  0  0  0  0  0  0  0  0
   -2.5522   26.2587    4.4979 C   0  0  0  0  0  0  0  0  0  0  0  0
   -1.2839   26.0800    5.0342 C   0  0  0  0  0  0  0  0  0  0  0  0
   -0.9683   26.6487    6.2215 N   0  0  0  0  0  0  0  0  0  0  0  0
   -1.8899   27.3909    6.8670 C   0  0  0  0  0  0  0  0  0  0  0  0
   -3.1368   27.6172    6.4386 N   0  0  0  0  0  0  0  0  0  0  0  0
   -3.4076   27.0345    5.2608 C   0  0  0  0  0  0  0  0  0  0  0  0
   -4.9166   27.1629    4.4855 S   0  0  0  0  0  0  0  0  0  0  0  0
   -6.4683   24.6383    0.5798 C   0  0  0  0  0  0  0  0  0  0  0  0
   -5.7206   24.6504    1.8908 C   0  0  0  0  0  0  0  0  0  0  0  0
   -5.7461   23.6701    2.6252 O   0  0  0  0  0  0  0  0  0  0  0  0
   -5.0874   25.8499    2.1187 N   0  0  0  0  0  0  0  0  0  0  0  0
   -5.1676   26.5948    1.4408 H   0  0  0  0  0  0  0  0  0  0  0  0
   -1.5622   27.9771    8.0932 N   0  0  0  0  0  0  0  0  0  0  0  0
   -0.9599   27.3035    8.5622 H   0  0  0  0  0  0  0  0  0  0  0  0
   -1.1145   29.3485    8.2682 C   0  0  0  0  0  0  0  0  0  0  0  0
   -0.4624   29.8245    6.9237 C   0  0  0  0  0  0  0  0  0  0  0  0
    0.8962   29.3350    7.4584 C   0  0  0  0  0  0  0  0  0  0  0  0
    0.3190   29.4283    8.8838 C   0  0  0  0  0  0  0  0  0  0  0  0
   -2.2411   30.2101    8.8508 C   0  0  0  0  0  0  0  0  0  0  0  0
   -1.7905   31.3764    9.7192 C   0  0  0  0  0  0  0  0  0  0  0  0
   -2.9000   32.3754    9.5032 C   0  0  0  0  0  0  0  0  0  0  0  0
   -3.2207   32.1722    8.0402 C   0  0  0  0  0  0  0  0  0  0  0  0
   -3.0130   30.7806    7.7660 O   0  0  0  0  0  0  0  0  0  0  0  0
 10 11  1  0  0  0
 11 12  2  0  0  0
 11 13  1  0  0  0
 13  1  1  0  0  0
  1  2  2  0  0  0
  2  3  1  0  0  0
  3  4  2  0  0  0
  4  5  1  0  0  0
  5  6  2  0  0  0
  6 15  1  0  0  0
 15 17  1  0  0  0
 17 21  1  0  0  0
 21 22  1  0  0  0
 22 23  1  0  0  0
 23 24  1  0  0  0
 24 25  1  0  0  0
 17 18  1  0  0  0
 18 19  1  0  0  0
 19 20  1  0  0  0
  6  7  1  0  0  0
  7  8  2  0  0  0
  8  9  1  0  0  0
  9  1  1  0  0  0
  8  3  1  0  0  0
 20 17  1  0  0  0
 25 21  1  0  0  0
 13 14  1  0  0  0
 15 16  1  0  0  0
M  END
> <minimizedAffinity>
-9.18925

$$$$
OCNT-2311312


 23 26  0  0  0  0  0  0  0  0999 V2000
   -6.0192   29.1455    7.5970 N   0  0  0  0  0  0  0  0  0  0  0  0
   -5.8299   29.8938    6.4424 C   0  0  0  0  0  0  0  0  0  0  0  0
   -5.0557   30.8559    6.4118 O   0  0  0  0  0  0  0  0  0  0  0  0
   -6.5488   28.2866    7.5391 H   0  0  0  0  0  0  0  0  0  0  0  0
   -6.6389   29.3742    5.2170 C   0  0  0  0  0  0  0  0  0  0  0  0
   -6.1241   29.6795    3.7600 C   0  0  0  0  0  0  0  0  0  0  0  0
   -5.9332   28.2010    3.6105 C   0  0  0  0  0  0  0  0  0  0  0  0
   -5.5280   27.2115    2.7463 C   0  0  0  0  0  0  0  0  0  0  0  0
   -5.5497   25.8979    3.2225 C   0  0  0  0  0  0  0  0  0  0  0  0
   -5.9697   25.6170    4.5370 C   0  0  0  0  0  0  0  0  0  0  0  0
   -6.3767   26.6460    5.3893 C   0  0  0  0  0  0  0  0  0  0  0  0
   -6.3456   27.9279    4.8908 C   0  0  0  0  0  0  0  0  0  0  0  0
   -5.2699   29.3611    8.8058 C   0  0  0  0  0  0  0  0  0  0  0  0
   -5.8319   30.2538    9.8955 C   0  0  0  0  0  0  0  0  0  0  0  0
   -5.8295   28.7731   10.0923 C   0  0  0  0  0  0  0  0  0  0  0  0
   -0.9532   29.2924    8.1786 C   0  0  0  0  0  0  0  0  0  0  0  0
   -1.5493   30.3405    8.8747 C   0  0  0  0  0  0  0  0  0  0  0  0
   -2.9357   30.3512    9.0752 C   0  0  0  0  0  0  0  0  0  0  0  0
   -3.7628   29.3216    8.5947 C   0  0  0  0  0  0  0  0  0  0  0  0
   -3.1405   28.2805    7.8875 C   0  0  0  0  0  0  0  0  0  0  0  0
   -1.7565   28.2644    7.6856 C   0  0  0  0  0  0  0  0  0  0  0  0
    0.7821   29.3206    6.5568 C   0  0  0  0  0  0  0  0  0  0  0  0
    0.3807   29.1564    7.9113 O   0  0  0  0  0  0  0  0  0  0  0  0
 22 23  1  0  0  0
 23 16  1  0  0  0
 16 17  1  0  0  0
 17 18  2  0  0  0
 18 19  1  0  0  0
 19 13  1  0  0  0
 13  1  1  0  0  0
  1  2  1  0  0  0
  2  3  2  0  0  0
  2  5  1  0  0  0
  5  6  1  0  0  0
  6  7  1  0  0  0
  7  8  2  0  0  0
  8  9  1  0  0  0
  9 10  2  0  0  0
 10 11  1  0  0  0
 11 12  2  0  0  0
 13 14  1  0  0  0
 14 15  1  0  0  0
 19 20  2  0  0  0
 20 21  1  0  0  0
 21 16  2  0  0  0
 15 13  1  0  0  0
 12  5  1  0  0  0
 12  7  1  0  0  0
  1  4  1  0  0  0
M  END
> <minimizedAffinity>
-9.01076

$$$$
OCNT-2311317


 26 30  0  0  0  0  0  0  0  0999 V2000
   -4.4196   24.6389    3.5330 C   0  0  0  0  0  0  0  0  0  0  0  0
   -4.6596   25.2603    4.7326 C   0  0  0  0  0  0  0  0  0  0  0  0
   -3.8813   26.3846    4.6816 N   0  0  0  0  0  0  0  0  0  0  0  0
   -3.2354   26.4776    3.5043 N   0  0  0  0  0  0  0  0  0  0  0  0
   -3.5543   25.4044    2.7939 N   0  0  0  0  0  0  0  0  0  0  0  0
   -5.9878   23.0671    2.1004 N   0  0  0  0  0  0  0  0  0  0  0  0
   -6.1821   21.7571    1.8454 N   0  0  0  0  0  0  0  0  0  0  0  0
   -5.3223   21.1474    2.6638 C   0  0  0  0  0  0  0  0  0  0  0  0
   -4.5583   22.0586    3.4124 C   0  0  0  0  0  0  0  0  0  0  0  0
   -4.9936   23.3041    3.0100 C   0  0  0  0  0  0  0  0  0  0  0  0
   -8.4667   24.2430   -0.4157 F   0  0  0  0  0  0  0  0  0  0  0  0
   -7.2034   23.8669   -0.0208 C   0  0  0  0  0  0  0  0  0  0  0  0
   -6.8886   22.7140   -0.6991 F   0  0  0  0  0  0  0  0  0  0  0  0
   -6.1704   24.8919    0.2324 C   0  0  0  0  0  0  0  0  0  0  0  0
   -6.7658   24.0830    1.3784 C   0  0  0  0  0  0  0  0  0  0  0  0
   -3.7429   27.4264    5.6817 C   0  0  0  0  0  0  0  0  0  0  0  0
   -2.3473   27.4771    6.1987 C   0  0  0  0  0  0  0  0  0  0  0  0
   -1.4740   26.5043    5.8920 N   0  0  0  0  0  0  0  0  0  0  0  0
   -0.3407   26.8842    6.5101 N   0  0  0  0  0  0  0  0  0  0  0  0
   -0.4499   28.0501    7.2179 C   0  0  0  0  0  0  0  0  0  0  0  0
    0.4779   28.7599    7.9861 C   0  0  0  0  0  0  0  0  0  0  0  0
    0.0361   29.9459    8.5813 C   0  0  0  0  0  0  0  0  0  0  0  0
   -1.2735   30.3953    8.4097 C   0  0  0  0  0  0  0  0  0  0  0  0
   -2.1867   29.6682    7.6362 C   0  0  0  0  0  0  0  0  0  0  0  0
   -1.7613   28.4705    7.0324 C   0  0  0  0  0  0  0  0  0  0  0  0
    0.4813   26.2996    6.4109 H   0  0  0  0  0  0  0  0  0  0  0  0
 11 12  1  0  0  0
 12 13  1  0  0  0
 12 14  1  0  0  0
 14 15  1  0  0  0
 15  6  1  0  0  0
  6  7  1  0  0  0
  7  8  2  0  0  0
  8  9  1  0  0  0
  9 10  2  0  0  0
 10  1  1  0  0  0
  1  2  2  0  0  0
  2  3  1  0  0  0
  3 16  1  0  0  0
 16 17  1  0  0  0
 17 18  2  0  0  0
 18 19  1  0  0  0
 19 20  1  0  0  0
 20 21  2  0  0  0
 21 22  1  0  0  0
 22 23  2  0  0  0
 23 24  1  0  0  0
 24 25  2  0  0  0
  3  4  1  0  0  0
  4  5  2  0  0  0
 15 12  1  0  0  0
 10  6  1  0  0  0
  5  1  1  0  0  0
 25 17  1  0  0  0
 25 20  1  0  0  0
 19 26  1  0  0  0
M  END
> <minimizedAffinity>
-9.91033

$$$$
OCNT-2311328


 26 29  0  0  0  0  0  0  0  0999 V2000
   -3.6794   23.3146    3.2067 O   0  0  0  0  0  0  0  0  0  0  0  0
   -4.6692   24.0446    3.2484 C   0  0  0  0  0  0  0  0  0  0  0  0
   -4.6456   25.3911    2.9110 N   0  0  0  0  0  0  0  0  0  0  0  0
   -5.9366   23.4175    3.6562 C   0  0  0  0  0  0  0  0  0  0  0  0
   -6.6693   22.7184    2.6949 C   0  0  0  0  0  0  0  0  0  0  0  0
   -7.8518   22.0831    2.9099 N   0  0  0  0  0  0  0  0  0  0  0  0
   -8.2803   22.1479    4.1963 C   0  0  0  0  0  0  0  0  0  0  0  0
   -9.4388   21.6157    4.8034 C   0  0  0  0  0  0  0  0  0  0  0  0
   -9.3723   21.9743    6.1325 C   0  0  0  0  0  0  0  0  0  0  0  0
   -8.2443   22.6955    6.3861 O   0  0  0  0  0  0  0  0  0  0  0  0
   -7.5791   22.8045    5.2029 C   0  0  0  0  0  0  0  0  0  0  0  0
   -6.3761   23.4605    4.9808 C   0  0  0  0  0  0  0  0  0  0  0  0
   -5.8332   26.2275    2.6787 C   0  0  0  0  0  0  0  0  0  0  0  0
   -6.0254   27.3359    3.7004 C   0  0  0  0  0  0  0  0  0  0  0  0
   -5.9615   28.6677    3.2836 C   0  0  0  0  0  0  0  0  0  0  0  0
   -6.1734   29.6782    4.2178 C   0  0  0  0  0  0  0  0  0  0  0  0
   -6.4482   29.3393    5.5377 C   0  0  0  0  0  0  0  0  0  0  0  0
   -6.5114   27.9960    5.8693 C   0  0  0  0  0  0  0  0  0  0  0  0
   -6.3121   26.9938    4.9853 N   0  0  0  0  0  0  0  0  0  0  0  0
   -3.3481   26.0041    2.6174 C   0  0  0  0  0  0  0  0  0  0  0  0
   -2.5087   26.2233    3.8609 C   0  0  0  0  0  0  0  0  0  0  0  0
   -1.1544   25.8952    3.8621 C   0  0  0  0  0  0  0  0  0  0  0  0
   -0.4048   26.1255    5.0126 C   0  0  0  0  0  0  0  0  0  0  0  0
   -1.0214   26.6792    6.1274 C   0  0  0  0  0  0  0  0  0  0  0  0
   -2.3682   26.9869    6.0432 C   0  0  0  0  0  0  0  0  0  0  0  0
   -3.1219   26.7797    4.9402 N   0  0  0  0  0  0  0  0  0  0  0  0
  1  2  2  0  0  0
  2  4  1  0  0  0
  4  5  1  0  0  0
  5  6  2  0  0  0
  6  7  1  0  0  0
  7  8  1  0  0  0
  8  9  2  0  0  0
  9 10  1  0  0  0
 10 11  1  0  0  0
 11 12  1  0  0  0
  2  3  1  0  0  0
  3 13  1  0  0  0
 13 14  1  0  0  0
 14 15  2  0  0  0
 15 16  1  0  0  0
 16 17  2  0  0  0
 17 18  1  0  0  0
 18 19  2  0  0  0
  3 20  1  0  0  0
 20 21  1  0  0  0
 21 22  2  0  0  0
 22 23  1  0  0  0
 23 24  2  0  0  0
 24 25  1  0  0  0
 25 26  2  0  0  0
 12  4  2  0  0  0
 19 14  1  0  0  0
 26 21  1  0  0  0
 11  7  2  0  0  0
M  END
> <minimizedAffinity>
-8.44618

$$$$
OCNT-2311336


 26 29  0  0  0  0  0  0  0  0999 V2000
   -3.9035   31.4708    6.2913 O   0  0  0  0  0  0  0  0  0  0  0  0
   -4.2677   30.5428    7.0074 C   0  0  0  0  0  0  0  0  0  0  0  0
   -5.2339   29.6392    6.6098 N   0  0  0  0  0  0  0  0  0  0  0  0
   -5.1516   28.7249    7.0567 H   0  0  0  0  0  0  0  0  0  0  0  0
   -3.6722   30.2423    8.4073 C   0  0  0  0  0  0  0  0  0  0  0  0
   -3.6031   31.5230    9.2688 C   0  0  0  0  0  0  0  0  0  0  0  0
   -2.1962   31.5425    9.8478 C   0  0  0  0  0  0  0  0  0  0  0  0
   -1.3649   30.8311    8.7897 C   0  0  0  0  0  0  0  0  0  0  0  0
   -2.2662   29.7952    8.3183 N   0  0  0  0  0  0  0  0  0  0  0  0
   -1.8822   28.7305    7.5678 C   0  0  0  0  0  0  0  0  0  0  0  0
   -2.6754   27.7129    7.2934 N   0  0  0  0  0  0  0  0  0  0  0  0
   -2.0236   26.7790    6.5076 C   0  0  0  0  0  0  0  0  0  0  0  0
   -0.7327   27.0957    6.1591 C   0  0  0  0  0  0  0  0  0  0  0  0
   -0.2983   28.5823    6.8707 S   0  0  0  0  0  0  0  0  0  0  0  0
   -5.7797   29.6718    5.2758 C   0  0  0  0  0  0  0  0  0  0  0  0
   -5.7930   28.3038    4.6582 C   0  0  0  0  0  0  0  0  0  0  0  0
   -5.7660   28.1280    3.2743 C   0  0  0  0  0  0  0  0  0  0  0  0
   -5.7576   26.8399    2.7307 C   0  0  0  0  0  0  0  0  0  0  0  0
   -5.7717   25.7461    3.5982 C   0  0  0  0  0  0  0  0  0  0  0  0
   -5.7919   25.8933    4.9485 N   0  0  0  0  0  0  0  0  0  0  0  0
   -5.7881   27.1542    5.4446 C   0  0  0  0  0  0  0  0  0  0  0  0
   -5.7582   24.4128    3.0926 N   0  0  0  0  0  0  0  0  0  0  0  0
   -5.5185   23.2710    3.8354 C   0  0  0  0  0  0  0  0  0  0  0  0
   -5.5942   22.2181    2.9561 C   0  0  0  0  0  0  0  0  0  0  0  0
   -5.8757   22.6629    1.6922 N   0  0  0  0  0  0  0  0  0  0  0  0
   -5.9656   23.9757    1.8048 C   0  0  0  0  0  0  0  0  0  0  0  0
  1  2  2  0  0  0
  2  3  1  0  0  0
  3 15  1  0  0  0
 15 16  1  0  0  0
 16 17  2  0  0  0
 17 18  1  0  0  0
 18 19  2  0  0  0
 19 22  1  0  0  0
 22 23  1  0  0  0
 23 24  2  0  0  0
 24 25  1  0  0  0
 25 26  2  0  0  0
 19 20  1  0  0  0
 20 21  2  0  0  0
  2  5  1  0  0  0
  5  6  1  0  0  0
  6  7  1  0  0  0
  7  8  1  0  0  0
  8  9  1  0  0  0
  9 10  1  0  0  0
 10 11  2  0  0  0
 11 12  1  0  0  0
 12 13  2  0  0  0
 13 14  1  0  0  0
 21 16  1  0  0  0
  9  5  1  0  0  0
 14 10  1  0  0  0
 26 22  1  0  0  0
  3  4  1  0  0  0
M  END
> <minimizedAffinity>
-8.58093

$$$$
OCNT-2311340


 32 35  0  0  0  0  0  0  0  0999 V2000
   -4.2803   25.1049    3.2949 N   0  0  0  0  0  0  0  0  0  0  0  0
   -2.8772   24.7081    3.4875 C   0  0  0  0  0  0  0  0  0  0  0  0
   -1.9987   25.8837    3.9460 C   0  0  0  0  0  0  0  0  0  0  0  0
   -2.4435   26.4337    5.2243 N   0  0  0  0  0  0  0  0  0  0  0  0
   -1.5391   27.1583    5.9738 C   0  0  0  0  0  0  0  0  0  0  0  0
   -0.4228   27.4574    5.5575 O   0  0  0  0  0  0  0  0  0  0  0  0
   -1.9845   27.5214    7.2169 N   0  0  0  0  0  0  0  0  0  0  0  0
   -3.8555   26.2211    5.5615 C   0  0  0  0  0  0  0  0  0  0  0  0
   -4.7574   26.0519    4.3191 C   0  0  0  0  0  0  0  0  0  0  0  0
   -2.6427   26.8845    7.6360 H   0  0  0  0  0  0  0  0  0  0  0  0
   -5.1727   23.9562    3.0170 C   0  0  0  0  0  0  0  0  0  0  0  0
   -5.9378   24.1212    1.7037 C   0  0  0  0  0  0  0  0  0  0  0  0
   -5.7831   25.2386    0.8670 C   0  0  0  0  0  0  0  0  0  0  0  0
   -6.5056   25.3432   -0.3244 C   0  0  0  0  0  0  0  0  0  0  0  0
   -7.3861   24.3317   -0.7012 C   0  0  0  0  0  0  0  0  0  0  0  0
   -7.5402   23.2092    0.1077 C   0  0  0  0  0  0  0  0  0  0  0  0
   -6.8193   23.1026    1.2983 C   0  0  0  0  0  0  0  0  0  0  0  0
   -5.6210   22.5275    4.9841 N   0  0  0  0  0  0  0  0  0  0  0  0
   -6.0798   23.5703    4.2186 C   0  0  0  0  0  0  0  0  0  0  0  0
   -7.1431   24.1107    4.5144 O   0  0  0  0  0  0  0  0  0  0  0  0
   -4.9688   21.8572    4.5968 H   0  0  0  0  0  0  0  0  0  0  0  0
   -6.2561   22.1935    5.6986 H   0  0  0  0  0  0  0  0  0  0  0  0
   -1.1238   28.2243    8.1416 C   0  0  0  0  0  0  0  0  0  0  0  0
   -1.7090   29.5637    8.5220 C   0  0  0  0  0  0  0  0  0  0  0  0
   -0.8719   30.6115    8.9426 C   0  0  0  0  0  0  0  0  0  0  0  0
   -1.3852   31.8696    9.2817 C   0  0  0  0  0  0  0  0  0  0  0  0
   -2.7635   32.0288    9.1719 C   0  0  0  0  0  0  0  0  0  0  0  0
   -3.4536   33.1696    9.4516 O   0  0  0  0  0  0  0  0  0  0  0  0
   -4.7649   32.9060    9.2115 C   0  0  0  0  0  0  0  0  0  0  0  0
   -4.9286   31.6096    8.7800 C   0  0  0  0  0  0  0  0  0  0  0  0
   -3.6331   31.0297    8.7531 C   0  0  0  0  0  0  0  0  0  0  0  0
   -3.1000   29.7727    8.4178 C   0  0  0  0  0  0  0  0  0  0  0  0
 18 19  1  0  0  0
 19 20  2  0  0  0
 19 11  1  0  0  0
 11 12  1  0  0  0
 12 13  2  0  0  0
 13 14  1  0  0  0
 14 15  2  0  0  0
 15 16  1  0  0  0
 16 17  2  0  0  0
 11  1  1  0  0  0
  1  2  1  0  0  0
  2  3  1  0  0  0
  3  4  1  0  0  0
  4  5  1  0  0  0
  5  6  2  0  0  0
  5  7  1  0  0  0
  7 23  1  0  0  0
 23 24  1  0  0  0
 24 25  2  0  0  0
 25 26  1  0  0  0
 26 27  2  0  0  0
 27 28  1  0  0  0
 28 29  1  0  0  0
 29 30  2  0  0  0
 30 31  1  0  0  0
 31 32  2  0  0  0
  4  8  1  0  0  0
  8  9  1  0  0  0
 17 12  1  0  0  0
  9  1  1  0  0  0
 32 24  1  0  0  0
 31 27  1  0  0  0
 18 21  1  0  0  0
 18 22  1  0  0  0
  7 10  1  0  0  0
M  END
> <minimizedAffinity>
-10.25650

$$$$
OCNT-2311344


 23 24  0  0  0  0  0  0  0  0999 V2000
   -3.5470   25.5570    4.0481 C   0  0  0  0  0  0  0  0  0  0  0  0
   -4.1173   26.1559    5.0459 N   0  0  0  0  0  0  0  0  0  0  0  0
   -3.0867   26.7634    5.8031 O   0  0  0  0  0  0  0  0  0  0  0  0
   -1.8581   26.1106    5.4544 C   0  0  0  0  0  0  0  0  0  0  0  0
   -2.0626   25.6950    4.0125 C   0  0  0  0  0  0  0  0  0  0  0  0
   -5.7361   23.4823    0.9884 C   0  0  0  0  0  0  0  0  0  0  0  0
   -5.5269   24.8590    0.9054 C   0  0  0  0  0  0  0  0  0  0  0  0
   -4.8106   25.5228    1.9103 C   0  0  0  0  0  0  0  0  0  0  0  0
   -4.2981   24.8190    3.0083 C   0  0  0  0  0  0  0  0  0  0  0  0
   -4.5005   23.4423    3.0936 C   0  0  0  0  0  0  0  0  0  0  0  0
   -5.2151   22.7922    2.0887 C   0  0  0  0  0  0  0  0  0  0  0  0
   -5.3964   21.4669    2.1977 F   0  0  0  0  0  0  0  0  0  0  0  0
   -7.7050   23.1772   -0.3158 C   0  0  0  0  0  0  0  0  0  0  0  0
   -6.4167   22.7225    0.0775 O   0  0  0  0  0  0  0  0  0  0  0  0
   -0.6679   27.0601    5.6288 C   0  0  0  0  0  0  0  0  0  0  0  0
   -0.2778   27.4012    6.9986 N   0  0  0  0  0  0  0  0  0  0  0  0
    0.6303   26.9678    7.2097 H   0  0  0  0  0  0  0  0  0  0  0  0
   -0.1619   28.8255    7.3809 C   0  0  0  0  0  0  0  0  0  0  0  0
    1.0937   29.1507    8.1924 C   0  0  0  0  0  0  0  0  0  0  0  0
   -1.4786   29.3707    8.0216 C   0  0  0  0  0  0  0  0  0  0  0  0
   -1.2098   30.5024    9.0141 C   0  0  0  0  0  0  0  0  0  0  0  0
   -2.3016   29.8701    6.9500 O   0  0  0  0  0  0  0  0  0  0  0  0
   -1.9488   31.1835    6.5337 C   0  0  0  0  0  0  0  0  0  0  0  0
 13 14  1  0  0  0
 14  6  1  0  0  0
  6  7  1  0  0  0
  7  8  2  0  0  0
  8  9  1  0  0  0
  9  1  1  0  0  0
  1  2  2  0  0  0
  2  3  1  0  0  0
  3  4  1  0  0  0
  4 15  1  0  0  0
 15 16  1  0  0  0
 16 18  1  0  0  0
 18 19  1  0  0  0
 18 20  1  0  0  0
 20 21  1  0  0  0
 20 22  1  0  0  0
 22 23  1  0  0  0
  4  5  1  0  0  0
  9 10  2  0  0  0
 10 11  1  0  0  0
 11 12  1  0  0  0
 11  6  2  0  0  0
  5  1  1  0  0  0
 16 17  1  0  0  0
M  END
> <minimizedAffinity>
-7.73213

$$$$
OCNT-2311351


 24 26  0  0  0  0  0  0  0  0999 V2000
   -1.0771   26.3022    4.9736 C   0  0  0  0  0  0  0  0  0  0  0  0
   -1.8791   26.3362    6.2801 C   0  0  0  0  0  0  0  0  0  0  0  0
   -1.6519   27.6356    7.0258 C   0  0  0  0  0  0  0  0  0  0  0  0
   -2.6431   28.2391    7.7025 C   0  0  0  0  0  0  0  0  0  0  0  0
   -2.3577   29.4988    8.3752 C   0  0  0  0  0  0  0  0  0  0  0  0
   -3.3832   30.2586    8.9486 C   0  0  0  0  0  0  0  0  0  0  0  0
   -3.0859   31.4462    9.6218 C   0  0  0  0  0  0  0  0  0  0  0  0
   -1.7633   31.8737    9.7330 C   0  0  0  0  0  0  0  0  0  0  0  0
   -0.7376   31.1161    9.1675 C   0  0  0  0  0  0  0  0  0  0  0  0
   -1.0365   29.9386    8.4815 C   0  0  0  0  0  0  0  0  0  0  0  0
    0.0238   29.2381    7.9785 O   0  0  0  0  0  0  0  0  0  0  0  0
   -0.2802   28.2666    6.9628 C   0  0  0  0  0  0  0  0  0  0  0  0
   -3.3129   26.1447    6.0400 N   0  0  0  0  0  0  0  0  0  0  0  0
   -3.8529   26.6694    6.7388 H   0  0  0  0  0  0  0  0  0  0  0  0
   -3.7379   26.6121    4.7186 C   0  0  0  0  0  0  0  0  0  0  0  0
   -5.2406   26.3098    4.4300 C   0  0  0  0  0  0  0  0  0  0  0  0
   -5.6155   24.9215    5.0195 C   0  0  0  0  0  0  0  0  0  0  0  0
   -6.7279   24.2615    4.2157 C   0  0  0  0  0  0  0  0  0  0  0  0
   -6.3711   24.0243    2.8542 O   0  0  0  0  0  0  0  0  0  0  0  0
   -5.3551   24.8787    2.3326 C   0  0  0  0  0  0  0  0  0  0  0  0
   -5.4615   26.2910    2.8897 C   0  0  0  0  0  0  0  0  0  0  0  0
   -6.1363   27.4361    5.0132 C   0  0  0  0  0  0  0  0  0  0  0  0
   -5.9188   27.6670    6.4016 O   0  0  0  0  0  0  0  0  0  0  0  0
   -6.3575   26.9487    6.8906 H   0  0  0  0  0  0  0  0  0  0  0  0
  1  2  1  0  0  0
  2 13  1  0  0  0
 13 15  1  0  0  0
 15 16  1  0  0  0
 16 22  1  0  0  0
 22 23  1  0  0  0
 16 17  1  0  0  0
 17 18  1  0  0  0
 18 19  1  0  0  0
 19 20  1  0  0  0
 20 21  1  0  0  0
  2  3  1  0  0  0
  3  4  2  0  0  0
  4  5  1  0  0  0
  5  6  2  0  0  0
  6  7  1  0  0  0
  7  8  2  0  0  0
  8  9  1  0  0  0
  9 10  2  0  0  0
 10 11  1  0  0  0
 11 12  1  0  0  0
 21 16  1  0  0  0
 12  3  1  0  0  0
 10  5  1  0  0  0
 13 14  1  0  0  0
 23 24  1  0  0  0
M  END
> <minimizedAffinity>
-8.49222

$$$$
OCNT-2311357


 27 29  0  0  0  0  0  0  0  0999 V2000
   -0.9352   26.7209    5.4164 C   0  0  0  0  0  0  0  0  0  0  0  0
    0.0148   26.4870    4.6694 O   0  0  0  0  0  0  0  0  0  0  0  0
   -2.2284   26.4206    5.0603 N   0  0  0  0  0  0  0  0  0  0  0  0
   -2.9735   26.9415    5.5218 H   0  0  0  0  0  0  0  0  0  0  0  0
   -1.9850   27.4631    7.6549 C   0  0  0  0  0  0  0  0  0  0  0  0
   -0.7385   27.3869    6.7799 C   0  0  0  0  0  0  0  0  0  0  0  0
    0.1349   28.9766    6.6178 S   0  0  0  0  0  0  0  0  0  0  0  0
   -0.9798   30.1346    7.3029 C   0  0  0  0  0  0  0  0  0  0  0  0
   -1.9826   30.6315    6.6157 N   0  0  0  0  0  0  0  0  0  0  0  0
   -2.7298   31.4710    7.4278 C   0  0  0  0  0  0  0  0  0  0  0  0
   -3.9011   32.1563    7.0482 C   0  0  0  0  0  0  0  0  0  0  0  0
   -4.5469   32.9912    7.9652 C   0  0  0  0  0  0  0  0  0  0  0  0
   -4.0422   33.1468    9.2522 C   0  0  0  0  0  0  0  0  0  0  0  0
   -2.8870   32.4708    9.6568 C   0  0  0  0  0  0  0  0  0  0  0  0
   -2.2481   31.6338    8.7278 C   0  0  0  0  0  0  0  0  0  0  0  0
   -0.8392   30.6662    8.9235 S   0  0  0  0  0  0  0  0  0  0  0  0
   -2.5239   25.8843    3.7411 C   0  0  0  0  0  0  0  0  0  0  0  0
   -3.9699   26.0588    3.2929 C   0  0  0  0  0  0  0  0  0  0  0  0
   -4.4814   27.1525    3.0827 O   0  0  0  0  0  0  0  0  0  0  0  0
   -4.6123   24.8625    3.1877 O   0  0  0  0  0  0  0  0  0  0  0  0
   -4.2275   24.0421    2.0792 C   0  0  0  0  0  0  0  0  0  0  0  0
   -5.4051   23.9032    1.1522 C   0  0  0  0  0  0  0  0  0  0  0  0
   -6.0092   22.6546    0.9498 C   0  0  0  0  0  0  0  0  0  0  0  0
   -7.0875   22.5251    0.0734 C   0  0  0  0  0  0  0  0  0  0  0  0
   -7.5657   23.6392   -0.6139 C   0  0  0  0  0  0  0  0  0  0  0  0
   -6.9631   24.8821   -0.4307 C   0  0  0  0  0  0  0  0  0  0  0  0
   -5.8846   25.0140    0.4451 C   0  0  0  0  0  0  0  0  0  0  0  0
  5  6  1  0  0  0
  6  7  1  0  0  0
  7  8  1  0  0  0
  8  9  2  0  0  0
  9 10  1  0  0  0
 10 11  2  0  0  0
 11 12  1  0  0  0
 12 13  2  0  0  0
 13 14  1  0  0  0
 14 15  2  0  0  0
 15 16  1  0  0  0
  6  1  1  0  0  0
  1  2  2  0  0  0
  1  3  1  0  0  0
  3 17  1  0  0  0
 17 18  1  0  0  0
 18 19  2  0  0  0
 18 20  1  0  0  0
 20 21  1  0  0  0
 21 22  1  0  0  0
 22 23  2  0  0  0
 23 24  1  0  0  0
 24 25  2  0  0  0
 25 26  1  0  0  0
 26 27  2  0  0  0
 16  8  1  0  0  0
 27 22  1  0  0  0
 15 10  1  0  0  0
  3  4  1  0  0  0
M  END
> <minimizedAffinity>
-9.43823

$$$$
OCNT-2311380


 22 25  0  0  0  0  0  0  0  0999 V2000
   -0.4134   25.5837    4.2425 O   0  0  0  0  0  0  0  0  0  0  0  0
   -1.2978   26.1584    4.8739 C   0  0  0  0  0  0  0  0  0  0  0  0
   -2.6342   25.9756    4.5460 N   0  0  0  0  0  0  0  0  0  0  0  0
   -3.7853   26.2340    5.3939 C   0  0  0  0  0  0  0  0  0  0  0  0
   -4.9230   25.3729    4.8249 C   0  0  0  0  0  0  0  0  0  0  0  0
   -6.2118   26.1532    4.7022 C   0  0  0  0  0  0  0  0  0  0  0  0
   -6.0538   26.9933    3.5549 O   0  0  0  0  0  0  0  0  0  0  0  0
   -5.0762   26.3932    2.6780 C   0  0  0  0  0  0  0  0  0  0  0  0
   -4.5243   25.1249    3.3638 C   0  0  0  0  0  0  0  0  0  0  0  0
   -2.9893   25.1041    3.4399 C   0  0  0  0  0  0  0  0  0  0  0  0
   -0.9909   27.0384    5.9719 C   0  0  0  0  0  0  0  0  0  0  0  0
   -1.6439   27.1646    7.1825 C   0  0  0  0  0  0  0  0  0  0  0  0
   -1.0363   28.0975    7.9844 N   0  0  0  0  0  0  0  0  0  0  0  0
    0.0096   28.5030    7.3050 C   0  0  0  0  0  0  0  0  0  0  0  0
    0.0887   27.8809    6.0928 N   0  0  0  0  0  0  0  0  0  0  0  0
    0.8377   27.9870    5.4239 H   0  0  0  0  0  0  0  0  0  0  0  0
   -5.0514   23.8655    2.6796 C   0  0  0  0  0  0  0  0  0  0  0  0
   -5.7370   23.9861    1.4539 C   0  0  0  0  0  0  0  0  0  0  0  0
   -6.2358   22.8650    0.7868 C   0  0  0  0  0  0  0  0  0  0  0  0
   -6.0620   21.5978    1.3310 C   0  0  0  0  0  0  0  0  0  0  0  0
   -5.3912   21.4542    2.5413 C   0  0  0  0  0  0  0  0  0  0  0  0
   -4.8909   22.5764    3.2097 C   0  0  0  0  0  0  0  0  0  0  0  0
  1  2  2  0  0  0
  2 11  1  0  0  0
 11 12  2  0  0  0
 12 13  1  0  0  0
 13 14  2  0  0  0
 14 15  1  0  0  0
  2  3  1  0  0  0
  3  4  1  0  0  0
  4  5  1  0  0  0
  5  6  1  0  0  0
  6  7  1  0  0  0
  7  8  1  0  0  0
  8  9  1  0  0  0
  9 17  1  0  0  0
 17 18  2  0  0  0
 18 19  1  0  0  0
 19 20  2  0  0  0
 20 21  1  0  0  0
 21 22  2  0  0  0
  9 10  1  0  0  0
 15 11  1  0  0  0
 10  3  1  0  0  0
  9  5  1  0  0  0
 22 17  1  0  0  0
 15 16  1  0  0  0
M  END
> <minimizedAffinity>
-8.79775

$$$$
OCNT-2311391


 29 31  0  0  0  0  0  0  0  0999 V2000
   -3.0151   26.2519    5.4005 O   0  0  0  0  0  0  0  0  0  0  0  0
   -2.4546   25.9380    4.2025 C   0  0  0  0  0  0  0  0  0  0  0  0
   -1.3892   25.3491    4.0685 O   0  0  0  0  0  0  0  0  0  0  0  0
   -3.3178   26.4173    3.0595 C   0  0  0  0  0  0  0  0  0  0  0  0
   -4.5607   24.2806    3.6236 C   0  0  0  0  0  0  0  0  0  0  0  0
   -4.4232   25.4263    2.6033 C   0  0  0  0  0  0  0  0  0  0  0  0
   -4.0614   24.8313    1.2290 C   0  0  0  0  0  0  0  0  0  0  0  0
   -5.7450   26.2547    2.5150 C   0  0  0  0  0  0  0  0  0  0  0  0
   -6.0017   27.2741    3.6022 C   0  0  0  0  0  0  0  0  0  0  0  0
   -5.9692   28.6465    3.3130 C   0  0  0  0  0  0  0  0  0  0  0  0
   -6.2085   29.5897    4.3149 C   0  0  0  0  0  0  0  0  0  0  0  0
   -6.4875   29.1663    5.6116 C   0  0  0  0  0  0  0  0  0  0  0  0
   -6.7795   30.3293    6.8458 Cl  0  0  0  0  0  0  0  0  0  0  0  0
   -6.5328   27.8077    5.9141 C   0  0  0  0  0  0  0  0  0  0  0  0
   -6.2937   26.8647    4.9114 C   0  0  0  0  0  0  0  0  0  0  0  0
   -2.1789   26.0350    6.5428 C   0  0  0  0  0  0  0  0  0  0  0  0
   -1.7004   27.3389    7.1799 C   0  0  0  0  0  0  0  0  0  0  0  0
   -2.5228   28.0450    7.8796 N   0  0  0  0  0  0  0  0  0  0  0  0
   -2.1879   29.3111    8.3770 C   0  0  0  0  0  0  0  0  0  0  0  0
   -3.2069   30.0317    9.0126 C   0  0  0  0  0  0  0  0  0  0  0  0
   -2.9866   31.3221    9.5075 C   0  0  0  0  0  0  0  0  0  0  0  0
   -1.7346   31.9169    9.3725 C   0  0  0  0  0  0  0  0  0  0  0  0
   -0.7053   31.2175    8.7487 C   0  0  0  0  0  0  0  0  0  0  0  0
   -0.9477   29.9258    8.2635 C   0  0  0  0  0  0  0  0  0  0  0  0
    0.3545   29.0457    7.5144 S   0  0  0  0  0  0  0  0  0  0  0  0
    0.8142   29.8179    6.3804 O   0  0  0  0  0  0  0  0  0  0  0  0
    1.2593   28.6178    8.5580 O   0  0  0  0  0  0  0  0  0  0  0  0
   -0.3804   27.7034    6.9021 N   0  0  0  0  0  0  0  0  0  0  0  0
    0.0445   27.3442    6.0392 H   0  0  0  0  0  0  0  0  0  0  0  0
  5  6  1  0  0  0
  6  7  1  0  0  0
  6  4  1  0  0  0
  4  2  1  0  0  0
  2  3  2  0  0  0
  2  1  1  0  0  0
  1 16  1  0  0  0
 16 17  1  0  0  0
 17 18  2  0  0  0
 18 19  1  0  0  0
 19 20  2  0  0  0
 20 21  1  0  0  0
 21 22  2  0  0  0
 22 23  1  0  0  0
 23 24  2  0  0  0
 24 25  1  0  0  0
 25 26  2  0  0  0
 25 27  2  0  0  0
 25 28  1  0  0  0
  6  8  1  0  0  0
  8  9  1  0  0  0
  9 10  1  0  0  0
 10 11  2  0  0  0
 11 12  1  0  0  0
 12 13  1  0  0  0
 12 14  2  0  0  0
 14 15  1  0  0  0
 28 17  1  0  0  0
 15  9  2  0  0  0
 24 19  1  0  0  0
 28 29  1  0  0  0
M  END
> <minimizedAffinity>
-10.05423

$$$$
OCNT-2311397


 28 30  0  0  0  0  0  0  0  0999 V2000
   -0.2432   28.5394    6.3438 N   0  0  0  0  0  0  0  0  0  0  0  0
   -1.2680   27.7074    6.7087 C   0  0  0  0  0  0  0  0  0  0  0  0
   -1.8153   27.7145    7.8037 O   0  0  0  0  0  0  0  0  0  0  0  0
   -1.6369   26.8892    5.6739 N   0  0  0  0  0  0  0  0  0  0  0  0
    0.3982   28.1696    5.6547 H   0  0  0  0  0  0  0  0  0  0  0  0
   -1.4260   27.2268    4.7463 H   0  0  0  0  0  0  0  0  0  0  0  0
    1.0088   28.7721    8.4153 C   0  0  0  0  0  0  0  0  0  0  0  0
    0.3108   29.5167    7.2722 C   0  0  0  0  0  0  0  0  0  0  0  0
   -0.7653   30.5003    7.7206 C   0  0  0  0  0  0  0  0  0  0  0  0
   -0.8503   30.8359    9.0858 C   0  0  0  0  0  0  0  0  0  0  0  0
   -1.8281   31.7174    9.5549 C   0  0  0  0  0  0  0  0  0  0  0  0
   -2.7413   32.2832    8.6632 C   0  0  0  0  0  0  0  0  0  0  0  0
   -2.6581   31.9776    7.3013 C   0  0  0  0  0  0  0  0  0  0  0  0
   -1.6731   31.1000    6.8328 C   0  0  0  0  0  0  0  0  0  0  0  0
   -3.7670   33.1579    9.1458 C   0  0  0  0  0  0  0  0  0  0  0  0
   -4.5865   33.8804    9.5301 N   0  0  0  0  0  0  0  0  0  0  0  0
   -2.7940   26.0217    5.7983 C   0  0  0  0  0  0  0  0  0  0  0  0
   -3.3857   25.7212    4.4661 C   0  0  0  0  0  0  0  0  0  0  0  0
   -4.3629   24.8222    4.0926 C   0  0  0  0  0  0  0  0  0  0  0  0
   -4.4704   24.9471    2.7284 N   0  0  0  0  0  0  0  0  0  0  0  0
   -3.5916   25.8904    2.2978 N   0  0  0  0  0  0  0  0  0  0  0  0
   -2.9413   26.3721    3.3476 N   0  0  0  0  0  0  0  0  0  0  0  0
   -5.3215   24.2446    1.8357 C   0  0  0  0  0  0  0  0  0  0  0  0
   -5.3805   22.8441    1.8942 C   0  0  0  0  0  0  0  0  0  0  0  0
   -6.2184   22.1391    1.0278 C   0  0  0  0  0  0  0  0  0  0  0  0
   -6.9974   22.8235    0.0986 C   0  0  0  0  0  0  0  0  0  0  0  0
   -6.9417   24.2160    0.0312 C   0  0  0  0  0  0  0  0  0  0  0  0
   -6.1075   24.9289    0.8968 C   0  0  0  0  0  0  0  0  0  0  0  0
  7  8  1  0  0  0
  8  1  1  0  0  0
  1  2  1  0  0  0
  2  3  2  0  0  0
  2  4  1  0  0  0
  4 17  1  0  0  0
 17 18  1  0  0  0
 18 19  2  0  0  0
 19 20  1  0  0  0
 20 23  1  0  0  0
 23 24  2  0  0  0
 24 25  1  0  0  0
 25 26  2  0  0  0
 26 27  1  0  0  0
 27 28  2  0  0  0
 20 21  1  0  0  0
 21 22  2  0  0  0
  8  9  1  0  0  0
  9 10  1  0  0  0
 10 11  2  0  0  0
 11 12  1  0  0  0
 12 15  1  0  0  0
 15 16  3  0  0  0
 12 13  2  0  0  0
 13 14  1  0  0  0
 22 18  1  0  0  0
 14  9  2  0  0  0
 28 23  1  0  0  0
  1  5  1  0  0  0
  4  6  1  0  0  0
M  END
> <minimizedAffinity>
-9.87241

$$$$
OCNT-2311405


 23 24  0  0  0  0  0  0  0  0999 V2000
   -5.1170   25.2147    3.2273 C   0  0  0  0  0  0  0  0  0  0  0  0
   -5.9791   25.6707    4.4241 C   0  0  0  0  0  0  0  0  0  0  0  0
   -5.7153   27.1183    4.8262 C   0  0  0  0  0  0  0  0  0  0  0  0
   -4.3099   27.3374    5.1423 N   0  0  0  0  0  0  0  0  0  0  0  0
   -3.9679   28.2327    6.1397 C   0  0  0  0  0  0  0  0  0  0  0  0
   -4.7756   28.9211    6.7520 O   0  0  0  0  0  0  0  0  0  0  0  0
   -3.3158   26.5599    4.4108 C   0  0  0  0  0  0  0  0  0  0  0  0
   -3.8552   26.0858    3.0675 C   0  0  0  0  0  0  0  0  0  0  0  0
   -5.8974   25.1932    1.8929 C   0  0  0  0  0  0  0  0  0  0  0  0
   -5.9649   23.8220    1.3206 N   0  0  0  0  0  0  0  0  0  0  0  0
   -6.7307   25.2708   -0.6400 C   0  0  0  0  0  0  0  0  0  0  0  0
   -6.4692   23.8645   -0.0837 C   0  0  0  0  0  0  0  0  0  0  0  0
   -7.7873   23.0783   -0.2132 C   0  0  0  0  0  0  0  0  0  0  0  0
   -6.7568   22.9359    2.2159 C   0  0  0  0  0  0  0  0  0  0  0  0
   -5.9578   21.7098    2.6973 C   0  0  0  0  0  0  0  0  0  0  0  0
   -5.8191   20.7702    1.6327 O   0  0  0  0  0  0  0  0  0  0  0  0
   -6.6570   20.8504    1.1306 H   0  0  0  0  0  0  0  0  0  0  0  0
   -2.6266   28.2558    6.3697 O   0  0  0  0  0  0  0  0  0  0  0  0
   -2.1831   29.1575    7.3961 C   0  0  0  0  0  0  0  0  0  0  0  0
   -1.3281   30.2377    6.7421 C   0  0  0  0  0  0  0  0  0  0  0  0
    0.0248   29.5679    6.5108 C   0  0  0  0  0  0  0  0  0  0  0  0
    0.1116   28.4263    7.5233 C   0  0  0  0  0  0  0  0  0  0  0  0
   -1.1871   28.4719    8.3256 C   0  0  0  0  0  0  0  0  0  0  0  0
 11 12  1  0  0  0
 12 13  1  0  0  0
 12 10  1  0  0  0
 10 14  1  0  0  0
 14 15  1  0  0  0
 15 16  1  0  0  0
 10  9  1  0  0  0
  9  1  1  0  0  0
  1  2  1  0  0  0
  2  3  1  0  0  0
  3  4  1  0  0  0
  4  5  1  0  0  0
  5  6  2  0  0  0
  5 18  1  0  0  0
 18 19  1  0  0  0
 19 20  1  0  0  0
 20 21  1  0  0  0
 21 22  1  0  0  0
 22 23  1  0  0  0
  4  7  1  0  0  0
  7  8  1  0  0  0
  8  1  1  0  0  0
 23 19  1  0  0  0
 16 17  1  0  0  0
M  END
> <minimizedAffinity>
-7.64013

$$$$
OCNT-2311414


 25 27  0  0  0  0  0  0  0  0999 V2000
   -4.4485   27.7191    5.6616 N   0  0  0  0  0  0  0  0  0  0  0  0
   -3.6495   26.7956    5.0130 C   0  0  0  0  0  0  0  0  0  0  0  0
   -2.4197   26.9220    5.4842 N   0  0  0  0  0  0  0  0  0  0  0  0
   -2.4006   27.9461    6.3910 N   0  0  0  0  0  0  0  0  0  0  0  0
   -3.6045   28.4725    6.4499 C   0  0  0  0  0  0  0  0  0  0  0  0
   -4.0241   29.5316    7.2037 N   0  0  0  0  0  0  0  0  0  0  0  0
   -3.7769   29.3829    8.6497 C   0  0  0  0  0  0  0  0  0  0  0  0
   -4.1764   30.6598    9.3856 C   0  0  0  0  0  0  0  0  0  0  0  0
   -3.2928   31.8588    8.9559 C   0  0  0  0  0  0  0  0  0  0  0  0
   -4.1311   33.1508    9.0484 C   0  0  0  0  0  0  0  0  0  0  0  0
   -2.7860   31.6651    7.5022 C   0  0  0  0  0  0  0  0  0  0  0  0
   -3.7776   30.8780    6.6488 C   0  0  0  0  0  0  0  0  0  0  0  0
   -2.0774   31.9803    9.9074 C   0  0  0  0  0  0  0  0  0  0  0  0
   -0.8621   31.8992    9.1613 O   0  0  0  0  0  0  0  0  0  0  0  0
   -0.3285   30.5818    9.1657 C   0  0  0  0  0  0  0  0  0  0  0  0
   -4.0555   25.8108    4.0143 C   0  0  0  0  0  0  0  0  0  0  0  0
   -3.8409   26.0366    2.6574 C   0  0  0  0  0  0  0  0  0  0  0  0
   -4.2149   25.1580    1.6900 N   0  0  0  0  0  0  0  0  0  0  0  0
   -4.8272   24.0411    2.1364 C   0  0  0  0  0  0  0  0  0  0  0  0
   -5.0570   23.8128    3.4828 C   0  0  0  0  0  0  0  0  0  0  0  0
   -4.6821   24.6863    4.4481 N   0  0  0  0  0  0  0  0  0  0  0  0
   -5.8991   27.8107    5.6184 C   0  0  0  0  0  0  0  0  0  0  0  0
   -6.1674   29.5736    3.8079 C   0  0  0  0  0  0  0  0  0  0  0  0
   -6.4552   29.0981    5.0333 C   0  0  0  0  0  0  0  0  0  0  0  0
   -7.4003   29.8371    5.9414 C   0  0  0  0  0  0  0  0  0  0  0  0
 23 24  2  0  0  0
 24 25  1  0  0  0
 24 22  1  0  0  0
 22  1  1  0  0  0
  1  2  1  0  0  0
  2 16  1  0  0  0
 16 17  2  0  0  0
 17 18  1  0  0  0
 18 19  2  0  0  0
 19 20  1  0  0  0
 20 21  2  0  0  0
  2  3  2  0  0  0
  3  4  1  0  0  0
  4  5  2  0  0  0
  5  6  1  0  0  0
  6  7  1  0  0  0
  7  8  1  0  0  0
  8  9  1  0  0  0
  9 10  1  0  0  0
  9 13  1  0  0  0
 13 14  1  0  0  0
 14 15  1  0  0  0
  9 11  1  0  0  0
 11 12  1  0  0  0
  5  1  1  0  0  0
 12  6  1  0  0  0
 21 16  1  0  0  0
M  END
> <minimizedAffinity>
-8.43303

$$$$
OCNT-2311438


 25 28  0  0  0  0  0  0  0  0999 V2000
   -3.5630   23.3807    2.6949 O   0  0  0  0  0  0  0  0  0  0  0  0
   -4.3137   24.1248    3.3253 C   0  0  0  0  0  0  0  0  0  0  0  0
   -3.9220   25.4227    3.6964 N   0  0  0  0  0  0  0  0  0  0  0  0
   -2.6782   25.9368    3.1387 C   0  0  0  0  0  0  0  0  0  0  0  0
   -1.5204   25.7440    4.1107 C   0  0  0  0  0  0  0  0  0  0  0  0
   -1.4805   26.7721    5.2426 C   0  0  0  0  0  0  0  0  0  0  0  0
   -2.7511   26.8359    6.1218 C   0  0  0  0  0  0  0  0  0  0  0  0
   -3.9640   27.3722    5.3315 C   0  0  0  0  0  0  0  0  0  0  0  0
   -4.7205   26.2935    4.5542 C   0  0  0  0  0  0  0  0  0  0  0  0
   -2.5642   27.6517    7.3406 N   0  0  0  0  0  0  0  0  0  0  0  0
   -1.1560   27.9613    7.6567 C   0  0  0  0  0  0  0  0  0  0  0  0
   -0.8332   29.4649    7.6307 C   0  0  0  0  0  0  0  0  0  0  0  0
   -1.6571   30.2390    8.5107 O   0  0  0  0  0  0  0  0  0  0  0  0
   -2.9761   29.6998    8.6699 C   0  0  0  0  0  0  0  0  0  0  0  0
   -3.4271   28.8369    7.4798 C   0  0  0  0  0  0  0  0  0  0  0  0
   -5.6318   23.6770    3.7398 C   0  0  0  0  0  0  0  0  0  0  0  0
   -6.7695   23.4143    2.9936 C   0  0  0  0  0  0  0  0  0  0  0  0
   -7.8501   22.9673    3.8243 C   0  0  0  0  0  0  0  0  0  0  0  0
   -7.4912   22.8864    5.1517 C   0  0  0  0  0  0  0  0  0  0  0  0
   -5.8638   23.3334    5.4049 S   0  0  0  0  0  0  0  0  0  0  0  0
   -6.8630   23.5575    1.5755 N   0  0  0  0  0  0  0  0  0  0  0  0
   -7.2907   22.6065    0.6711 C   0  0  0  0  0  0  0  0  0  0  0  0
   -7.2266   23.2222   -0.5531 C   0  0  0  0  0  0  0  0  0  0  0  0
   -6.7800   24.4953   -0.3942 N   0  0  0  0  0  0  0  0  0  0  0  0
   -6.5534   24.6897    0.8975 N   0  0  0  0  0  0  0  0  0  0  0  0
  1  2  2  0  0  0
  2 16  1  0  0  0
 16 17  2  0  0  0
 17 21  1  0  0  0
 21 22  1  0  0  0
 22 23  2  0  0  0
 23 24  1  0  0  0
 24 25  2  0  0  0
 17 18  1  0  0  0
 18 19  2  0  0  0
 19 20  1  0  0  0
  2  3  1  0  0  0
  3  4  1  0  0  0
  4  5  1  0  0  0
  5  6  1  0  0  0
  6  7  1  0  0  0
  7 10  1  0  0  0
 10 11  1  0  0  0
 11 12  1  0  0  0
 12 13  1  0  0  0
 13 14  1  0  0  0
 14 15  1  0  0  0
  7  8  1  0  0  0
  8  9  1  0  0  0
 20 16  1  0  0  0
  9  3  1  0  0  0
 25 21  1  0  0  0
 15 10  1  0  0  0
M  END
> <minimizedAffinity>
-8.15073

$$$$
OCNT-2311440


 33 36  0  0  0  0  0  0  0  0999 V2000
   -0.6635   28.8887    8.3253 C   0  0  0  0  0  0  0  0  0  0  0  0
    0.8320   29.2015    8.1636 C   0  0  0  0  0  0  0  0  0  0  0  0
    0.9728   29.4819    6.6735 C   0  0  0  0  0  0  0  0  0  0  0  0
    0.0103   28.4871    6.0395 C   0  0  0  0  0  0  0  0  0  0  0  0
   -1.0058   28.2398    7.0550 N   0  0  0  0  0  0  0  0  0  0  0  0
   -2.0774   27.3565    6.9854 C   0  0  0  0  0  0  0  0  0  0  0  0
   -2.7796   27.1636    7.9789 O   0  0  0  0  0  0  0  0  0  0  0  0
   -2.3307   26.6340    5.7299 C   0  0  0  0  0  0  0  0  0  0  0  0
   -3.5224   26.5773    5.0056 C   0  0  0  0  0  0  0  0  0  0  0  0
   -4.8034   27.2907    5.2295 C   0  0  0  0  0  0  0  0  0  0  0  0
   -3.2424   25.7217    3.9439 N   0  0  0  0  0  0  0  0  0  0  0  0
   -1.9193   25.4151    3.9648 N   0  0  0  0  0  0  0  0  0  0  0  0
   -1.3794   25.9177    5.0569 N   0  0  0  0  0  0  0  0  0  0  0  0
   -4.0700   25.1636    2.9250 C   0  0  0  0  0  0  0  0  0  0  0  0
   -4.1282   23.7667    2.7863 C   0  0  0  0  0  0  0  0  0  0  0  0
   -4.9291   23.1795    1.7984 C   0  0  0  0  0  0  0  0  0  0  0  0
   -5.6888   23.9670    0.9355 C   0  0  0  0  0  0  0  0  0  0  0  0
   -5.6611   25.3528    1.0878 C   0  0  0  0  0  0  0  0  0  0  0  0
   -4.8588   25.9478    2.0768 C   0  0  0  0  0  0  0  0  0  0  0  0
   -6.4186   23.2664    0.0184 O   0  0  0  0  0  0  0  0  0  0  0  0
   -7.8263   23.3444    0.1271 C   0  0  0  0  0  0  0  0  0  0  0  0
   -8.2147   24.5057   -0.4630 F   0  0  0  0  0  0  0  0  0  0  0  0
   -8.3876   22.3397   -0.5879 F   0  0  0  0  0  0  0  0  0  0  0  0
   -1.5052   30.1649    8.5808 C   0  0  0  0  0  0  0  0  0  0  0  0
   -2.6971   29.8561    9.3777 N   0  0  0  0  0  0  0  0  0  0  0  0
   -2.5789   30.0016   10.3765 H   0  0  0  0  0  0  0  0  0  0  0  0
   -5.0888   33.8420    8.0784 C   0  0  0  0  0  0  0  0  0  0  0  0
   -5.0855   32.3607    8.3073 C   0  0  0  0  0  0  0  0  0  0  0  0
   -3.9172   31.8003    8.7008 N   0  0  0  0  0  0  0  0  0  0  0  0
   -3.8860   30.4781    8.9581 C   0  0  0  0  0  0  0  0  0  0  0  0
   -5.0147   29.6808    8.7925 C   0  0  0  0  0  0  0  0  0  0  0  0
   -6.2111   30.2606    8.3868 C   0  0  0  0  0  0  0  0  0  0  0  0
   -6.2533   31.6263    8.1498 C   0  0  0  0  0  0  0  0  0  0  0  0
 27 28  1  0  0  0
 28 29  1  0  0  0
 29 30  2  0  0  0
 30 25  1  0  0  0
 25 24  1  0  0  0
 24  1  1  0  0  0
  1  2  1  0  0  0
  2  3  1  0  0  0
  3  4  1  0  0  0
  4  5  1  0  0  0
  5  6  1  0  0  0
  6  7  2  0  0  0
  6  8  1  0  0  0
  8  9  2  0  0  0
  9 10  1  0  0  0
  9 11  1  0  0  0
 11 14  1  0  0  0
 14 15  1  0  0  0
 15 16  2  0  0  0
 16 17  1  0  0  0
 17 20  1  0  0  0
 20 21  1  0  0  0
 21 22  1  0  0  0
 21 23  1  0  0  0
 17 18  2  0  0  0
 18 19  1  0  0  0
 11 12  1  0  0  0
 12 13  2  0  0  0
 30 31  1  0  0  0
 31 32  2  0  0  0
 32 33  1  0  0  0
 33 28  2  0  0  0
  5  1  1  0  0  0
 13  8  1  0  0  0
 19 14  2  0  0  0
 25 26  1  0  0  0
M  END
> <minimizedAffinity>
-10.54081

$$$$
OCNT-2311450


 24 26  0  0  0  0  0  0  0  0999 V2000
   -6.1393   28.3980    5.1285 N   0  0  0  0  0  0  0  0  0  0  0  0
   -7.0713   28.5129    6.2567 C   0  0  0  0  0  0  0  0  0  0  0  0
   -6.3184   28.9015    7.5282 C   0  0  0  0  0  0  0  0  0  0  0  0
   -5.6047   30.2557    7.3686 C   0  0  0  0  0  0  0  0  0  0  0  0
   -6.5276   31.2928    7.7588 O   0  0  0  0  0  0  0  0  0  0  0  0
   -5.2130   30.5217    5.9035 C   0  0  0  0  0  0  0  0  0  0  0  0
   -4.9252   29.2182    5.1673 C   0  0  0  0  0  0  0  0  0  0  0  0
   -6.4704   31.3106    8.7376 H   0  0  0  0  0  0  0  0  0  0  0  0
   -6.2090   23.6202    5.2966 C   0  0  0  0  0  0  0  0  0  0  0  0
   -6.0554   24.8517    4.4497 C   0  0  0  0  0  0  0  0  0  0  0  0
   -5.8159   24.7773    3.0813 C   0  0  0  0  0  0  0  0  0  0  0  0
   -5.6762   25.9706    2.3798 C   0  0  0  0  0  0  0  0  0  0  0  0
   -5.7865   27.1847    3.0589 C   0  0  0  0  0  0  0  0  0  0  0  0
   -6.0444   27.2023    4.4282 C   0  0  0  0  0  0  0  0  0  0  0  0
   -6.1618   26.0380    5.1077 N   0  0  0  0  0  0  0  0  0  0  0  0
   -5.7051   23.5264    2.3967 C   0  0  0  0  0  0  0  0  0  0  0  0
   -5.6178   22.5111    1.8410 N   0  0  0  0  0  0  0  0  0  0  0  0
   -4.3665   30.3743    8.3101 C   0  0  0  0  0  0  0  0  0  0  0  0
   -3.3662   31.3192    7.7537 N   0  0  0  0  0  0  0  0  0  0  0  0
   -3.0354   32.4189    8.6766 C   0  0  0  0  0  0  0  0  0  0  0  0
   -2.1691   32.0062    9.8712 C   0  0  0  0  0  0  0  0  0  0  0  0
   -0.9112   31.2726    9.4215 C   0  0  0  0  0  0  0  0  0  0  0  0
   -1.2618   30.1355    8.4693 C   0  0  0  0  0  0  0  0  0  0  0  0
   -2.1356   30.6354    7.3172 C   0  0  0  0  0  0  0  0  0  0  0  0
  9 10  1  0  0  0
 10 11  2  0  0  0
 11 16  1  0  0  0
 16 17  3  0  0  0
 11 12  1  0  0  0
 12 13  2  0  0  0
 13 14  1  0  0  0
 14  1  1  0  0  0
  1  2  1  0  0  0
  2  3  1  0  0  0
  3  4  1  0  0  0
  4  5  1  0  0  0
  4 18  1  0  0  0
 18 19  1  0  0  0
 19 20  1  0  0  0
 20 21  1  0  0  0
 21 22  1  0  0  0
 22 23  1  0  0  0
 23 24  1  0  0  0
  4  6  1  0  0  0
  6  7  1  0  0  0
 14 15  2  0  0  0
 15 10  1  0  0  0
  7  1  1  0  0  0
 24 19  1  0  0  0
  5  8  1  0  0  0
M  END
> <minimizedAffinity>
-8.19853

$$$$
OCNT-2311473


 24 26  0  0  0  0  0  0  0  0999 V2000
   -4.8704   28.2814    4.8501 N   0  0  0  0  0  0  0  0  0  0  0  0
   -4.9834   28.4973    6.2102 C   0  0  0  0  0  0  0  0  0  0  0  0
   -6.0723   28.4749    6.7818 O   0  0  0  0  0  0  0  0  0  0  0  0
   -3.9539   28.4887    4.4402 H   0  0  0  0  0  0  0  0  0  0  0  0
   -3.7022   28.7809    6.8527 C   0  0  0  0  0  0  0  0  0  0  0  0
   -2.5918   28.1460    6.5286 N   0  0  0  0  0  0  0  0  0  0  0  0
   -1.5318   28.6512    7.2649 C   0  0  0  0  0  0  0  0  0  0  0  0
   -0.1922   28.2456    7.1893 C   0  0  0  0  0  0  0  0  0  0  0  0
    0.7561   28.8217    7.9715 N   0  0  0  0  0  0  0  0  0  0  0  0
    0.3894   29.7968    8.8288 C   0  0  0  0  0  0  0  0  0  0  0  0
   -0.9027   30.2715    8.9778 C   0  0  0  0  0  0  0  0  0  0  0  0
   -1.8641   29.6679    8.1631 C   0  0  0  0  0  0  0  0  0  0  0  0
   -3.5543   29.9879    8.0535 S   0  0  0  0  0  0  0  0  0  0  0  0
   -6.0081   28.2910    3.9637 C   0  0  0  0  0  0  0  0  0  0  0  0
   -5.8379   27.3155    2.8005 C   0  0  0  0  0  0  0  0  0  0  0  0
   -5.7209   25.8523    3.2534 C   0  0  0  0  0  0  0  0  0  0  0  0
   -4.0048   24.1221    2.7984 C   0  0  0  0  0  0  0  0  0  0  0  0
   -5.0097   25.0395    2.2449 N   0  0  0  0  0  0  0  0  0  0  0  0
   -5.8885   24.3742    1.3561 C   0  0  0  0  0  0  0  0  0  0  0  0
   -6.3276   25.0393    0.2074 C   0  0  0  0  0  0  0  0  0  0  0  0
   -7.1640   24.3899   -0.6988 C   0  0  0  0  0  0  0  0  0  0  0  0
   -7.5449   23.0820   -0.4472 C   0  0  0  0  0  0  0  0  0  0  0  0
   -7.0640   22.4818    0.7007 C   0  0  0  0  0  0  0  0  0  0  0  0
   -6.2512   23.0943    1.5913 N   0  0  0  0  0  0  0  0  0  0  0  0
 17 18  1  0  0  0
 18 16  1  0  0  0
 16 15  1  0  0  0
 15 14  1  0  0  0
 14  1  1  0  0  0
  1  2  1  0  0  0
  2  3  2  0  0  0
  2  5  1  0  0  0
  5  6  2  0  0  0
  6  7  1  0  0  0
  7  8  2  0  0  0
  8  9  1  0  0  0
  9 10  2  0  0  0
 10 11  1  0  0  0
 11 12  2  0  0  0
 12 13  1  0  0  0
 18 19  1  0  0  0
 19 20  2  0  0  0
 20 21  1  0  0  0
 21 22  2  0  0  0
 22 23  1  0  0  0
 23 24  2  0  0  0
 13  5  1  0  0  0
 24 19  1  0  0  0
 12  7  1  0  0  0
  1  4  1  0  0  0
M  END
> <minimizedAffinity>
-8.41462

$$$$
OCNT-2311479


 21 23  0  0  0  0  0  0  0  0999 V2000
   -4.9873   30.0868    7.5397 S   0  0  0  0  0  0  0  0  0  0  0  0
   -5.4191   29.2768    8.6582 O   0  0  0  0  0  0  0  0  0  0  0  0
   -5.5465   31.3999    7.2985 O   0  0  0  0  0  0  0  0  0  0  0  0
   -3.2994   30.2451    7.6195 N   0  0  0  0  0  0  0  0  0  0  0  0
   -2.7240   31.5806    7.2842 C   0  0  0  0  0  0  0  0  0  0  0  0
   -2.2818   32.2155    8.6119 C   0  0  0  0  0  0  0  0  0  0  0  0
   -2.5716   31.1822    9.6840 C   0  0  0  0  0  0  0  0  0  0  0  0
   -2.6845   29.8656    8.9282 C   0  0  0  0  0  0  0  0  0  0  0  0
   -1.3153   29.1730    8.6951 C   0  0  0  0  0  0  0  0  0  0  0  0
   -0.2778   29.9429    7.9548 N   0  0  0  0  0  0  0  0  0  0  0  0
    0.9873   29.1993    8.0064 C   0  0  0  0  0  0  0  0  0  0  0  0
   -0.6724   30.1526    6.5505 C   0  0  0  0  0  0  0  0  0  0  0  0
   -1.5601   31.3831    6.3106 C   0  0  0  0  0  0  0  0  0  0  0  0
   -5.6622   26.6818    2.5675 C   0  0  0  0  0  0  0  0  0  0  0  0
   -5.4902   27.5471    3.7792 C   0  0  0  0  0  0  0  0  0  0  0  0
   -6.1537   28.7775    3.8848 C   0  0  0  0  0  0  0  0  0  0  0  0
   -6.0068   29.5615    5.0316 C   0  0  0  0  0  0  0  0  0  0  0  0
   -5.1987   29.1065    6.0773 C   0  0  0  0  0  0  0  0  0  0  0  0
   -4.5482   27.8748    5.9974 C   0  0  0  0  0  0  0  0  0  0  0  0
   -4.7027   27.1086    4.8497 C   0  0  0  0  0  0  0  0  0  0  0  0
   -4.0767   25.9256    4.7745 F   0  0  0  0  0  0  0  0  0  0  0  0
 14 15  1  0  0  0
 15 16  1  0  0  0
 16 17  2  0  0  0
 17 18  1  0  0  0
 18  1  1  0  0  0
  1  2  2  0  0  0
  1  3  2  0  0  0
  1  4  1  0  0  0
  4  5  1  0  0  0
  5  6  1  0  0  0
  6  7  1  0  0  0
  7  8  1  0  0  0
  8  9  1  0  0  0
  9 10  1  0  0  0
 10 11  1  0  0  0
 10 12  1  0  0  0
 12 13  1  0  0  0
 18 19  2  0  0  0
 19 20  1  0  0  0
 20 21  1  0  0  0
 20 15  2  0  0  0
  8  4  1  0  0  0
 13  5  1  0  0  0
M  END
> <minimizedAffinity>
-8.33810

$$$$
OCNT-2311515


 30 32  0  0  0  0  0  0  0  0999 V2000
   -2.0319   25.8415    4.2118 O   0  0  0  0  0  0  0  0  0  0  0  0
   -3.0337   26.5429    4.2468 C   0  0  0  0  0  0  0  0  0  0  0  0
   -3.3164   27.4261    5.2548 N   0  0  0  0  0  0  0  0  0  0  0  0
   -3.9825   26.5782    3.2582 N   0  0  0  0  0  0  0  0  0  0  0  0
   -4.2862   27.6596    5.3878 H   0  0  0  0  0  0  0  0  0  0  0  0
   -4.8825   26.9589    3.5035 H   0  0  0  0  0  0  0  0  0  0  0  0
   -2.4852   27.4486    6.4360 C   0  0  0  0  0  0  0  0  0  0  0  0
   -2.7853   28.6618    7.2842 C   0  0  0  0  0  0  0  0  0  0  0  0
   -4.0839   29.2054    7.2397 C   0  0  0  0  0  0  0  0  0  0  0  0
   -4.3559   30.3098    8.0137 C   0  0  0  0  0  0  0  0  0  0  0  0
   -3.3988   30.8758    8.8173 C   0  0  0  0  0  0  0  0  0  0  0  0
   -2.1180   30.3684    8.9026 C   0  0  0  0  0  0  0  0  0  0  0  0
   -1.8048   29.2360    8.1386 C   0  0  0  0  0  0  0  0  0  0  0  0
   -3.8658   31.9596    9.4947 O   0  0  0  0  0  0  0  0  0  0  0  0
   -5.2250   32.0173    9.0117 C   0  0  0  0  0  0  0  0  0  0  0  0
   -5.5463   30.9614    8.0831 O   0  0  0  0  0  0  0  0  0  0  0  0
   -0.5858   28.6099    8.1415 O   0  0  0  0  0  0  0  0  0  0  0  0
    0.5464   29.3793    7.7700 C   0  0  0  0  0  0  0  0  0  0  0  0
    0.8170   29.1721    6.4589 F   0  0  0  0  0  0  0  0  0  0  0  0
    1.6055   28.8980    8.4685 F   0  0  0  0  0  0  0  0  0  0  0  0
   -3.9192   25.6533    2.1446 C   0  0  0  0  0  0  0  0  0  0  0  0
   -5.2705   24.9846    1.8336 C   0  0  0  0  0  0  0  0  0  0  0  0
   -5.6327   25.1253    0.3086 C   0  0  0  0  0  0  0  0  0  0  0  0
   -7.0703   24.7495   -0.1596 C   0  0  0  0  0  0  0  0  0  0  0  0
   -7.3885   23.2567   -0.4648 C   0  0  0  0  0  0  0  0  0  0  0  0
   -7.3235   22.2192    0.7071 C   0  0  0  0  0  0  0  0  0  0  0  0
   -6.3187   22.6247    1.7842 C   0  0  0  0  0  0  0  0  0  0  0  0
   -7.2604   23.6836    2.0584 F   0  0  0  0  0  0  0  0  0  0  0  0
   -5.3846   22.6990    0.6807 F   0  0  0  0  0  0  0  0  0  0  0  0
   -5.3160   23.5404    2.4812 C   0  0  0  0  0  0  0  0  0  0  0  0
  1  2  2  0  0  0
  2  3  1  0  0  0
  3  7  1  0  0  0
  7  8  1  0  0  0
  8  9  1  0  0  0
  9 10  2  0  0  0
 10 11  1  0  0  0
 11 12  2  0  0  0
 12 13  1  0  0  0
 13 17  1  0  0  0
 17 18  1  0  0  0
 18 19  1  0  0  0
 18 20  1  0  0  0
 11 14  1  0  0  0
 14 15  1  0  0  0
 15 16  1  0  0  0
  2  4  1  0  0  0
  4 21  1  0  0  0
 21 22  1  0  0  0
 22 23  1  0  0  0
 23 24  1  0  0  0
 24 25  1  0  0  0
 25 26  1  0  0  0
 26 27  1  0  0  0
 27 28  1  0  0  0
 27 29  1  0  0  0
 27 30  1  0  0  0
 13  8  2  0  0  0
 30 22  1  0  0  0
 16 10  1  0  0  0
  3  5  1  0  0  0
  4  6  1  0  0  0
M  END
> <minimizedAffinity>
-10.18304

$$$$
OCNT-2311523


 23 26  0  0  0  0  0  0  0  0999 V2000
   -3.4572   26.0377    2.2006 O   0  0  0  0  0  0  0  0  0  0  0  0
   -4.6768   25.7006    2.9014 S   0  0  0  0  0  0  0  0  0  0  0  0
   -5.8123   26.5969    2.9085 O   0  0  0  0  0  0  0  0  0  0  0  0
   -5.2375   24.1211    2.3218 C   0  0  0  0  0  0  0  0  0  0  0  0
   -4.9553   22.9636    3.0593 C   0  0  0  0  0  0  0  0  0  0  0  0
   -5.4060   21.7145    2.6071 C   0  0  0  0  0  0  0  0  0  0  0  0
   -6.1303   21.6094    1.4176 C   0  0  0  0  0  0  0  0  0  0  0  0
   -6.3904   22.7651    0.6987 C   0  0  0  0  0  0  0  0  0  0  0  0
   -5.9457   24.0077    1.1342 C   0  0  0  0  0  0  0  0  0  0  0  0
   -6.3363   25.0323    0.1322 C   0  0  0  0  0  0  0  0  0  0  0  0
   -7.3061   24.3530   -0.7001 O   0  0  0  0  0  0  0  0  0  0  0  0
   -7.1076   22.9247   -0.5918 C   0  0  0  0  0  0  0  0  0  0  0  0
   -4.3066   25.3966    4.5188 N   0  0  0  0  0  0  0  0  0  0  0  0
   -4.4405   24.4213    4.7827 H   0  0  0  0  0  0  0  0  0  0  0  0
   -3.2753   26.1478    5.1540 C   0  0  0  0  0  0  0  0  0  0  0  0
   -3.5404   27.3526    5.7669 C   0  0  0  0  0  0  0  0  0  0  0  0
   -2.6100   28.0992    6.3995 N   0  0  0  0  0  0  0  0  0  0  0  0
   -1.3455   27.6257    6.4212 C   0  0  0  0  0  0  0  0  0  0  0  0
   -0.9911   26.4564    5.8466 N   0  0  0  0  0  0  0  0  0  0  0  0
   -1.9580   25.7497    5.2198 C   0  0  0  0  0  0  0  0  0  0  0  0
   -0.2864   28.4329    7.1291 C   0  0  0  0  0  0  0  0  0  0  0  0
    0.5916   29.3871    6.3484 C   0  0  0  0  0  0  0  0  0  0  0  0
   -0.4472   29.9294    7.2850 C   0  0  0  0  0  0  0  0  0  0  0  0
  1  2  2  0  0  0
  2  3  2  0  0  0
  2 13  1  0  0  0
 13 15  1  0  0  0
 15 16  2  0  0  0
 16 17  1  0  0  0
 17 18  2  0  0  0
 18 21  1  0  0  0
 21 22  1  0  0  0
 22 23  1  0  0  0
 18 19  1  0  0  0
 19 20  2  0  0  0
  2  4  1  0  0  0
  4  5  2  0  0  0
  5  6  1  0  0  0
  6  7  2  0  0  0
  7  8  1  0  0  0
  8  9  2  0  0  0
  9 10  1  0  0  0
 10 11  1  0  0  0
 11 12  1  0  0  0
 20 15  1  0  0  0
  9  4  1  0  0  0
 23 21  1  0  0  0
 12  8  1  0  0  0
 13 14  1  0  0  0
M  END
> <minimizedAffinity>
-8.60291

$$$$
OCNT-2311525


 24 26  0  0  0  0  0  0  0  0999 V2000
   -5.1638   29.0202    6.4114 N   0  0  0  0  0  0  0  0  0  0  0  0
   -6.3581   28.5655    7.1476 C   0  0  0  0  0  0  0  0  0  0  0  0
   -6.4888   29.1032    8.5799 C   0  0  0  0  0  0  0  0  0  0  0  0
   -5.1335   29.4638    9.1640 C   0  0  0  0  0  0  0  0  0  0  0  0
   -4.4988   30.5689    8.3109 C   0  0  0  0  0  0  0  0  0  0  0  0
   -4.7971   30.3975    6.7931 C   0  0  0  0  0  0  0  0  0  0  0  0
   -3.1003   30.7712    8.6344 N   0  0  0  0  0  0  0  0  0  0  0  0
   -2.5834   31.8501    9.3705 C   0  0  0  0  0  0  0  0  0  0  0  0
   -3.1877   32.8062    9.8271 O   0  0  0  0  0  0  0  0  0  0  0  0
   -1.2028   31.6357    9.4959 N   0  0  0  0  0  0  0  0  0  0  0  0
   -0.8901   30.4390    8.8676 C   0  0  0  0  0  0  0  0  0  0  0  0
    0.3210   29.8055    8.7340 C   0  0  0  0  0  0  0  0  0  0  0  0
    0.3059   28.5964    8.0385 C   0  0  0  0  0  0  0  0  0  0  0  0
   -0.9089   28.1101    7.5344 C   0  0  0  0  0  0  0  0  0  0  0  0
   -2.1046   28.7335    7.6718 N   0  0  0  0  0  0  0  0  0  0  0  0
   -2.0540   29.8900    8.3354 C   0  0  0  0  0  0  0  0  0  0  0  0
   -0.5799   32.2636    9.9759 H   0  0  0  0  0  0  0  0  0  0  0  0
   -5.2533   28.8020    4.9414 C   0  0  0  0  0  0  0  0  0  0  0  0
   -6.2215   29.8037    4.2755 C   0  0  0  0  0  0  0  0  0  0  0  0
   -5.7168   27.3525    4.6157 C   0  0  0  0  0  0  0  0  0  0  0  0
   -5.8216   26.9798    3.1258 C   0  0  0  0  0  0  0  0  0  0  0  0
   -3.5610   25.9483    2.7612 C   0  0  0  0  0  0  0  0  0  0  0  0
   -5.0713   25.7043    2.6996 C   0  0  0  0  0  0  0  0  0  0  0  0
   -5.4625   25.2370    1.2967 C   0  0  0  0  0  0  0  0  0  0  0  0
 22 23  1  0  0  0
 23 24  1  0  0  0
 23 21  1  0  0  0
 21 20  1  0  0  0
 20 18  1  0  0  0
 18 19  1  0  0  0
 18  1  1  0  0  0
  1  2  1  0  0  0
  2  3  1  0  0  0
  3  4  1  0  0  0
  4  5  1  0  0  0
  5  7  1  0  0  0
  7  8  1  0  0  0
  8  9  2  0  0  0
  8 10  1  0  0  0
 10 11  1  0  0  0
 11 12  1  0  0  0
 12 13  2  0  0  0
 13 14  1  0  0  0
 14 15  2  0  0  0
 15 16  1  0  0  0
  5  6  1  0  0  0
  6  1  1  0  0  0
 16  7  1  0  0  0
 16 11  2  0  0  0
 10 17  1  0  0  0
M  END
> <minimizedAffinity>
-8.55457

$$$$
OCNT-2311532


 23 25  0  0  0  0  0  0  0  0999 V2000
   -5.7031   26.9275    4.0534 C   0  0  0  0  0  0  0  0  0  0  0  0
   -6.1095   27.8525    3.0816 C   0  0  0  0  0  0  0  0  0  0  0  0
   -6.1078   29.2140    3.3633 C   0  0  0  0  0  0  0  0  0  0  0  0
   -6.4986   30.0825    2.4212 F   0  0  0  0  0  0  0  0  0  0  0  0
   -5.7071   29.6938    4.6050 C   0  0  0  0  0  0  0  0  0  0  0  0
   -5.2955   28.7986    5.5984 C   0  0  0  0  0  0  0  0  0  0  0  0
   -5.3029   27.4208    5.3103 C   0  0  0  0  0  0  0  0  0  0  0  0
   -5.8398   23.6251    2.1517 C   0  0  0  0  0  0  0  0  0  0  0  0
   -5.6539   22.7221    3.2063 C   0  0  0  0  0  0  0  0  0  0  0  0
   -5.4856   23.1782    4.5148 C   0  0  0  0  0  0  0  0  0  0  0  0
   -5.5038   24.5453    4.7920 C   0  0  0  0  0  0  0  0  0  0  0  0
   -5.6905   25.4835    3.7675 C   0  0  0  0  0  0  0  0  0  0  0  0
   -5.8598   25.0016    2.4572 C   0  0  0  0  0  0  0  0  0  0  0  0
   -7.3405   23.6778    0.0447 C   0  0  0  0  0  0  0  0  0  0  0  0
   -6.0558   23.1961    0.7134 C   0  0  0  0  0  0  0  0  0  0  0  0
   -6.0407   21.7677    0.6659 O   0  0  0  0  0  0  0  0  0  0  0  0
   -6.1267   21.5081   -0.2660 H   0  0  0  0  0  0  0  0  0  0  0  0
   -4.8656   29.3018    6.9531 C   0  0  0  0  0  0  0  0  0  0  0  0
   -3.5726   29.9618    6.9015 N   0  0  0  0  0  0  0  0  0  0  0  0
   -3.3509   31.3098    6.8287 C   0  0  0  0  0  0  0  0  0  0  0  0
   -1.9835   31.4396    6.7572 C   0  0  0  0  0  0  0  0  0  0  0  0
   -1.3764   30.2107    6.7749 N   0  0  0  0  0  0  0  0  0  0  0  0
   -2.3569   29.3400    6.8613 C   0  0  0  0  0  0  0  0  0  0  0  0
 14 15  1  0  0  0
 15 16  1  0  0  0
 15  8  1  0  0  0
  8  9  2  0  0  0
  9 10  1  0  0  0
 10 11  2  0  0  0
 11 12  1  0  0  0
 12  1  1  0  0  0
  1  2  1  0  0  0
  2  3  2  0  0  0
  3  4  1  0  0  0
  3  5  1  0  0  0
  5  6  2  0  0  0
  6 18  1  0  0  0
 18 19  1  0  0  0
 19 20  1  0  0  0
 20 21  2  0  0  0
 21 22  1  0  0  0
 22 23  2  0  0  0
  6  7  1  0  0  0
 12 13  2  0  0  0
 13  8  1  0  0  0
  7  1  2  0  0  0
 23 19  1  0  0  0
 16 17  1  0  0  0
M  END
> <minimizedAffinity>
-8.74245

$$$$
OCNT-2311552


 27 30  0  0  0  0  0  0  0  0999 V2000
   -3.1502   26.7913    5.5120 C   0  0  0  0  0  0  0  0  0  0  0  0
   -2.5506   25.9783    6.2087 O   0  0  0  0  0  0  0  0  0  0  0  0
   -3.3010   26.6311    4.1596 N   0  0  0  0  0  0  0  0  0  0  0  0
   -3.8933   27.2516    3.6201 H   0  0  0  0  0  0  0  0  0  0  0  0
   -6.2640   27.8589    5.3487 C   0  0  0  0  0  0  0  0  0  0  0  0
   -5.0359   28.4229    5.9425 C   0  0  0  0  0  0  0  0  0  0  0  0
   -3.7245   28.0062    6.0401 C   0  0  0  0  0  0  0  0  0  0  0  0
   -3.0688   29.0740    6.7228 C   0  0  0  0  0  0  0  0  0  0  0  0
   -3.9356   30.0707    6.9809 N   0  0  0  0  0  0  0  0  0  0  0  0
   -5.1579   29.6523    6.5046 O   0  0  0  0  0  0  0  0  0  0  0  0
   -1.6735   29.1499    7.1517 C   0  0  0  0  0  0  0  0  0  0  0  0
   -0.6449   29.2459    6.2184 C   0  0  0  0  0  0  0  0  0  0  0  0
    0.6681   29.3148    6.6753 C   0  0  0  0  0  0  0  0  0  0  0  0
    0.9147   29.2906    8.0427 C   0  0  0  0  0  0  0  0  0  0  0  0
   -0.1671   29.2066    8.9024 C   0  0  0  0  0  0  0  0  0  0  0  0
   -1.4526   29.1437    8.4915 N   0  0  0  0  0  0  0  0  0  0  0  0
   -2.8563   25.4354    3.4922 C   0  0  0  0  0  0  0  0  0  0  0  0
   -3.9369   24.9852    2.5695 C   0  0  0  0  0  0  0  0  0  0  0  0
   -4.6131   25.7305    1.7079 N   0  0  0  0  0  0  0  0  0  0  0  0
   -5.4788   24.8726    1.0926 C   0  0  0  0  0  0  0  0  0  0  0  0
   -5.3336   23.5966    1.5804 C   0  0  0  0  0  0  0  0  0  0  0  0
   -6.1072   22.4040    1.1676 C   0  0  0  0  0  0  0  0  0  0  0  0
   -6.8284   22.7037   -0.1643 C   0  0  0  0  0  0  0  0  0  0  0  0
   -7.4647   24.1123   -0.1963 C   0  0  0  0  0  0  0  0  0  0  0  0
   -6.4282   25.2379    0.0117 C   0  0  0  0  0  0  0  0  0  0  0  0
   -4.3542   23.6735    2.5249 N   0  0  0  0  0  0  0  0  0  0  0  0
   -3.9918   22.9154    3.0867 H   0  0  0  0  0  0  0  0  0  0  0  0
  5  6  1  0  0  0
  6  7  2  0  0  0
  7  1  1  0  0  0
  1  2  2  0  0  0
  1  3  1  0  0  0
  3 17  1  0  0  0
 17 18  1  0  0  0
 18 19  2  0  0  0
 19 20  1  0  0  0
 20 21  2  0  0  0
 21 22  1  0  0  0
 22 23  1  0  0  0
 23 24  1  0  0  0
 24 25  1  0  0  0
 21 26  1  0  0  0
  7  8  1  0  0  0
  8 11  1  0  0  0
 11 12  2  0  0  0
 12 13  1  0  0  0
 13 14  2  0  0  0
 14 15  1  0  0  0
 15 16  2  0  0  0
  8  9  2  0  0  0
  9 10  1  0  0  0
 10  6  1  0  0  0
 26 18  1  0  0  0
 16 11  1  0  0  0
 25 20  1  0  0  0
  3  4  1  0  0  0
 26 27  1  0  0  0
M  END
> <minimizedAffinity>
-9.63126

$$$$
OCNT-2311554


 26 28  0  0  0  0  0  0  0  0999 V2000
   -5.7874   27.7030    3.0464 C   0  0  0  0  0  0  0  0  0  0  0  0
   -4.5496   26.3716    3.1771 S   0  0  0  0  0  0  0  0  0  0  0  0
   -5.5962   23.8443    5.2268 C   0  0  0  0  0  0  0  0  0  0  0  0
   -5.9085   24.0019    3.7835 C   0  0  0  0  0  0  0  0  0  0  0  0
   -5.5513   24.9701    2.8679 C   0  0  0  0  0  0  0  0  0  0  0  0
   -6.1509   24.6530    1.6155 C   0  0  0  0  0  0  0  0  0  0  0  0
   -6.1683   25.2530    0.3380 C   0  0  0  0  0  0  0  0  0  0  0  0
   -6.8749   24.6404   -0.7031 C   0  0  0  0  0  0  0  0  0  0  0  0
   -7.5597   23.4470   -0.4890 C   0  0  0  0  0  0  0  0  0  0  0  0
   -7.5621   22.8331    0.7670 C   0  0  0  0  0  0  0  0  0  0  0  0
   -6.8508   23.4596    1.7976 C   0  0  0  0  0  0  0  0  0  0  0  0
   -6.6930   23.0922    3.1149 N   0  0  0  0  0  0  0  0  0  0  0  0
   -7.1117   22.2710    3.5288 H   0  0  0  0  0  0  0  0  0  0  0  0
   -6.0839   28.3427    4.4051 C   0  0  0  0  0  0  0  0  0  0  0  0
   -5.4087   29.6219    4.5912 N   0  0  0  0  0  0  0  0  0  0  0  0
   -4.6426   29.8426    5.7225 C   0  0  0  0  0  0  0  0  0  0  0  0
   -4.4436   28.9779    6.5645 O   0  0  0  0  0  0  0  0  0  0  0  0
   -4.1491   31.1328    5.7268 N   0  0  0  0  0  0  0  0  0  0  0  0
   -5.9342   30.4279    4.2869 H   0  0  0  0  0  0  0  0  0  0  0  0
   -4.2390   31.6580    4.8712 H   0  0  0  0  0  0  0  0  0  0  0  0
   -3.3975   31.6520    6.7672 C   0  0  0  0  0  0  0  0  0  0  0  0
   -2.0360   31.7104    6.9770 C   0  0  0  0  0  0  0  0  0  0  0  0
   -1.8772   32.3520    8.2173 C   0  0  0  0  0  0  0  0  0  0  0  0
   -3.0445   32.6805    8.7726 N   0  0  0  0  0  0  0  0  0  0  0  0
   -3.9539   32.2484    7.8769 N   0  0  0  0  0  0  0  0  0  0  0  0
   -5.3562   32.4475    8.1550 C   0  0  0  0  0  0  0  0  0  0  0  0
  3  4  1  0  0  0
  4  5  2  0  0  0
  5  2  1  0  0  0
  2  1  1  0  0  0
  1 14  1  0  0  0
 14 15  1  0  0  0
 15 16  1  0  0  0
 16 17  2  0  0  0
 16 18  1  0  0  0
 18 21  1  0  0  0
 21 22  2  0  0  0
 22 23  1  0  0  0
 23 24  2  0  0  0
 24 25  1  0  0  0
 25 26  1  0  0  0
  5  6  1  0  0  0
  6  7  2  0  0  0
  7  8  1  0  0  0
  8  9  2  0  0  0
  9 10  1  0  0  0
 10 11  2  0  0  0
 11 12  1  0  0  0
 12  4  1  0  0  0
 25 21  1  0  0  0
 11  6  1  0  0  0
 15 19  1  0  0  0
 18 20  1  0  0  0
 12 13  1  0  0  0
M  END
> <minimizedAffinity>
-9.30699

$$$$
OCNT-2311559


 28 30  0  0  0  0  0  0  0  0999 V2000
   -5.0980   30.0391    7.0845 C   0  0  0  0  0  0  0  0  0  0  0  0
   -4.4299   29.1112    6.2685 C   0  0  0  0  0  0  0  0  0  0  0  0
   -5.1348   28.1488    5.5224 C   0  0  0  0  0  0  0  0  0  0  0  0
   -6.5358   28.1374    5.5956 C   0  0  0  0  0  0  0  0  0  0  0  0
   -7.2114   29.0599    6.3984 C   0  0  0  0  0  0  0  0  0  0  0  0
   -6.4917   29.9966    7.1311 C   0  0  0  0  0  0  0  0  0  0  0  0
   -7.1621   30.8876    7.8764 F   0  0  0  0  0  0  0  0  0  0  0  0
   -4.3897   27.2064    4.6893 C   0  0  0  0  0  0  0  0  0  0  0  0
   -3.2079   26.5957    5.0529 C   0  0  0  0  0  0  0  0  0  0  0  0
   -2.6557   25.5865    3.7862 S   0  0  0  0  0  0  0  0  0  0  0  0
   -4.0424   25.9970    2.8422 C   0  0  0  0  0  0  0  0  0  0  0  0
   -4.8341   26.8776    3.4164 N   0  0  0  0  0  0  0  0  0  0  0  0
   -4.2814   25.5690    1.5802 N   0  0  0  0  0  0  0  0  0  0  0  0
   -3.8504   26.1451    0.8652 H   0  0  0  0  0  0  0  0  0  0  0  0
   -5.3019   24.7460    1.0684 C   0  0  0  0  0  0  0  0  0  0  0  0
   -6.1609   25.2929    0.0974 C   0  0  0  0  0  0  0  0  0  0  0  0
   -7.1749   24.5289   -0.4862 C   0  0  0  0  0  0  0  0  0  0  0  0
   -7.3355   23.2054   -0.1044 C   0  0  0  0  0  0  0  0  0  0  0  0
   -8.3061   22.4690   -0.6599 F   0  0  0  0  0  0  0  0  0  0  0  0
   -6.5024   22.6366    0.8482 C   0  0  0  0  0  0  0  0  0  0  0  0
   -5.4872   23.4046    1.4288 C   0  0  0  0  0  0  0  0  0  0  0  0
   -4.3215   31.0646    7.8749 C   0  0  0  0  0  0  0  0  0  0  0  0
   -3.5873   30.4697    9.0786 C   0  0  0  0  0  0  0  0  0  0  0  0
    0.1078   29.7548    8.6854 C   0  0  0  0  0  0  0  0  0  0  0  0
   -1.1330   30.5515    8.9872 C   0  0  0  0  0  0  0  0  0  0  0  0
   -1.0834   31.6929    9.4335 O   0  0  0  0  0  0  0  0  0  0  0  0
   -2.3069   29.8828    8.7291 N   0  0  0  0  0  0  0  0  0  0  0  0
   -2.2651   28.8811    8.5756 H   0  0  0  0  0  0  0  0  0  0  0  0
 24 25  1  0  0  0
 25 26  2  0  0  0
 25 27  1  0  0  0
 27 23  1  0  0  0
 23 22  1  0  0  0
 22  1  1  0  0  0
  1  2  1  0  0  0
  2  3  2  0  0  0
  3  8  1  0  0  0
  8  9  2  0  0  0
  9 10  1  0  0  0
 10 11  1  0  0  0
 11 13  1  0  0  0
 13 15  1  0  0  0
 15 16  1  0  0  0
 16 17  2  0  0  0
 17 18  1  0  0  0
 18 19  1  0  0  0
 18 20  2  0  0  0
 20 21  1  0  0  0
 11 12  2  0  0  0
  3  4  1  0  0  0
  4  5  2  0  0  0
  5  6  1  0  0  0
  6  7  1  0  0  0
  6  1  2  0  0  0
 12  8  1  0  0  0
 21 15  2  0  0  0
 27 28  1  0  0  0
 13 14  1  0  0  0
M  END
> <minimizedAffinity>
-9.59792

$$$$
OCNT-2311573


 22 24  0  0  0  0  0  0  0  0999 V2000
   -1.1311   30.4743    6.5334 C   0  0  0  0  0  0  0  0  0  0  0  0
   -1.5633   29.8302    7.8583 C   0  0  0  0  0  0  0  0  0  0  0  0
   -0.6306   30.3999    8.9854 C   0  0  0  0  0  0  0  0  0  0  0  0
   -1.3826   31.5923    9.5445 C   0  0  0  0  0  0  0  0  0  0  0  0
   -2.8159   31.0914    9.5302 C   0  0  0  0  0  0  0  0  0  0  0  0
   -2.8989   30.3292    8.2811 N   0  0  0  0  0  0  0  0  0  0  0  0
   -4.1482   29.9064    7.8961 C   0  0  0  0  0  0  0  0  0  0  0  0
   -5.0661   29.3781    8.7819 C   0  0  0  0  0  0  0  0  0  0  0  0
   -6.2866   28.9680    8.2860 C   0  0  0  0  0  0  0  0  0  0  0  0
   -6.6223   29.0420    6.9920 N   0  0  0  0  0  0  0  0  0  0  0  0
   -5.6684   29.5468    6.1949 C   0  0  0  0  0  0  0  0  0  0  0  0
   -4.4514   29.9719    6.5855 N   0  0  0  0  0  0  0  0  0  0  0  0
   -5.9677   29.6419    4.7905 C   0  0  0  0  0  0  0  0  0  0  0  0
   -6.2055   29.7219    3.6534 N   0  0  0  0  0  0  0  0  0  0  0  0
   -1.3914   28.2816    7.9112 C   0  0  0  0  0  0  0  0  0  0  0  0
   -1.5291   27.4539    6.6537 C   0  0  0  0  0  0  0  0  0  0  0  0
   -2.7898   27.0971    6.1539 C   0  0  0  0  0  0  0  0  0  0  0  0
   -2.9054   26.3439    4.9832 C   0  0  0  0  0  0  0  0  0  0  0  0
   -1.7629   25.9482    4.2896 C   0  0  0  0  0  0  0  0  0  0  0  0
   -0.5080   26.3180    4.7654 C   0  0  0  0  0  0  0  0  0  0  0  0
    1.0453   25.7817    3.8319 Br  0  0  0  0  0  0  0  0  0  0  0  0
   -0.3865   27.0739    5.9316 C   0  0  0  0  0  0  0  0  0  0  0  0
  1  2  1  0  0  0
  2 15  1  0  0  0
 15 16  1  0  0  0
 16 17  2  0  0  0
 17 18  1  0  0  0
 18 19  2  0  0  0
 19 20  1  0  0  0
 20 21  1  0  0  0
 20 22  2  0  0  0
  2  3  1  0  0  0
  3  4  1  0  0  0
  4  5  1  0  0  0
  5  6  1  0  0  0
  6  7  1  0  0  0
  7  8  1  0  0  0
  8  9  2  0  0  0
  9 10  1  0  0  0
 10 11  2  0  0  0
 11 13  1  0  0  0
 13 14  3  0  0  0
 11 12  1  0  0  0
  6  2  1  0  0  0
 12  7  2  0  0  0
 22 16  1  0  0  0
M  END
> <minimizedAffinity>
-8.40561

$$$$
OCNT-2311582


 23 25  0  0  0  0  0  0  0  0999 V2000
   -6.1859   29.7980    4.2458 O   0  0  0  0  0  0  0  0  0  0  0  0
   -5.7934   28.8316    4.8934 C   0  0  0  0  0  0  0  0  0  0  0  0
   -5.4446   27.6159    4.3225 N   0  0  0  0  0  0  0  0  0  0  0  0
   -5.4513   27.5173    2.8545 C   0  0  0  0  0  0  0  0  0  0  0  0
   -4.6532   26.3030    2.3598 C   0  0  0  0  0  0  0  0  0  0  0  0
   -5.1805   25.0301    2.9077 N   0  0  0  0  0  0  0  0  0  0  0  0
   -5.7957   25.1342    4.2533 C   0  0  0  0  0  0  0  0  0  0  0  0
   -5.2663   26.3453    5.0472 C   0  0  0  0  0  0  0  0  0  0  0  0
   -5.6928   28.9992    6.3521 C   0  0  0  0  0  0  0  0  0  0  0  0
   -6.7642   28.7040    7.1852 C   0  0  0  0  0  0  0  0  0  0  0  0
   -6.7211   28.8264    8.5331 N   0  0  0  0  0  0  0  0  0  0  0  0
   -5.5387   29.2245    9.0655 C   0  0  0  0  0  0  0  0  0  0  0  0
   -5.4916   29.3466   10.4012 F   0  0  0  0  0  0  0  0  0  0  0  0
   -4.4043   29.5073    8.3101 C   0  0  0  0  0  0  0  0  0  0  0  0
   -2.9328   30.0030    9.0465 Cl  0  0  0  0  0  0  0  0  0  0  0  0
   -4.4814   29.3869    6.9258 C   0  0  0  0  0  0  0  0  0  0  0  0
   -6.0256   24.3338    2.0195 C   0  0  0  0  0  0  0  0  0  0  0  0
   -6.2287   24.8450    0.7315 C   0  0  0  0  0  0  0  0  0  0  0  0
   -7.0545   24.1690   -0.1665 C   0  0  0  0  0  0  0  0  0  0  0  0
   -7.6602   22.9973    0.2447 C   0  0  0  0  0  0  0  0  0  0  0  0
   -8.4603   22.3183   -0.5857 F   0  0  0  0  0  0  0  0  0  0  0  0
   -7.4247   22.5470    1.5278 C   0  0  0  0  0  0  0  0  0  0  0  0
   -6.6254   23.1885    2.4157 N   0  0  0  0  0  0  0  0  0  0  0  0
  1  2  2  0  0  0
  2  9  1  0  0  0
  9 10  1  0  0  0
 10 11  2  0  0  0
 11 12  1  0  0  0
 12 13  1  0  0  0
 12 14  2  0  0  0
 14 15  1  0  0  0
 14 16  1  0  0  0
  2  3  1  0  0  0
  3  4  1  0  0  0
  4  5  1  0  0  0
  5  6  1  0  0  0
  6 17  1  0  0  0
 17 18  2  0  0  0
 18 19  1  0  0  0
 19 20  2  0  0  0
 20 21  1  0  0  0
 20 22  1  0  0  0
 22 23  2  0  0  0
  6  7  1  0  0  0
  7  8  1  0  0  0
 16  9  2  0  0  0
  8  3  1  0  0  0
 23 17  1  0  0  0
M  END
> <minimizedAffinity>
-8.46640

$$$$
OCNT-2311590


 26 27  0  0  0  0  0  0  0  0999 V2000
   -1.1129   28.8134    7.3018 N   0  0  0  0  0  0  0  0  0  0  0  0
    1.2086   29.1201    8.2586 C   0  0  0  0  0  0  0  0  0  0  0  0
    0.3238   29.0279    7.0186 C   0  0  0  0  0  0  0  0  0  0  0  0
   -1.4374   27.3520    7.2901 C   0  0  0  0  0  0  0  0  0  0  0  0
   -1.8654   26.8897    5.8860 C   0  0  0  0  0  0  0  0  0  0  0  0
   -1.0348   26.5033    5.0685 O   0  0  0  0  0  0  0  0  0  0  0  0
   -3.2378   26.9190    5.7239 N   0  0  0  0  0  0  0  0  0  0  0  0
   -3.7171   27.3445    6.5165 H   0  0  0  0  0  0  0  0  0  0  0  0
   -4.0048   26.5439    4.6093 C   0  0  0  0  0  0  0  0  0  0  0  0
   -5.0171   27.4249    4.2109 C   0  0  0  0  0  0  0  0  0  0  0  0
   -5.8250   27.1243    3.1149 C   0  0  0  0  0  0  0  0  0  0  0  0
   -5.6238   25.9385    2.4122 C   0  0  0  0  0  0  0  0  0  0  0  0
   -4.6184   25.0490    2.7970 C   0  0  0  0  0  0  0  0  0  0  0  0
   -3.8117   25.3553    3.8978 C   0  0  0  0  0  0  0  0  0  0  0  0
   -4.5292   23.9232    2.0228 O   0  0  0  0  0  0  0  0  0  0  0  0
   -5.0734   22.7266    2.5675 C   0  0  0  0  0  0  0  0  0  0  0  0
   -1.4807   29.3976    8.6128 C   0  0  0  0  0  0  0  0  0  0  0  0
   -2.1108   30.8177    8.6263 C   0  0  0  0  0  0  0  0  0  0  0  0
   -1.2197   31.9150    9.2202 C   0  0  0  0  0  0  0  0  0  0  0  0
   -3.5645   30.8876    9.1561 C   0  0  0  0  0  0  0  0  0  0  0  0
   -4.3691   29.6754    8.9215 N   0  0  0  0  0  0  0  0  0  0  0  0
   -4.9204   29.6370    7.5427 C   0  0  0  0  0  0  0  0  0  0  0  0
   -6.4171   29.9884    7.4157 C   0  0  0  0  0  0  0  0  0  0  0  0
   -6.7724   31.0532    8.2968 O   0  0  0  0  0  0  0  0  0  0  0  0
   -6.5647   30.6920    9.6702 C   0  0  0  0  0  0  0  0  0  0  0  0
   -5.4939   29.5992    9.8757 C   0  0  0  0  0  0  0  0  0  0  0  0
  2  3  1  0  0  0
  3  1  1  0  0  0
  1  4  1  0  0  0
  4  5  1  0  0  0
  5  6  2  0  0  0
  5  7  1  0  0  0
  7  9  1  0  0  0
  9 10  2  0  0  0
 10 11  1  0  0  0
 11 12  2  0  0  0
 12 13  1  0  0  0
 13 15  1  0  0  0
 15 16  1  0  0  0
 13 14  2  0  0  0
  1 17  1  0  0  0
 17 18  1  0  0  0
 18 19  1  0  0  0
 18 20  1  0  0  0
 20 21  1  0  0  0
 21 22  1  0  0  0
 22 23  1  0  0  0
 23 24  1  0  0  0
 24 25  1  0  0  0
 25 26  1  0  0  0
 14  9  1  0  0  0
 26 21  1  0  0  0
  7  8  1  0  0  0
M  END
> <minimizedAffinity>
-7.62380

$$$$
OCNT-2311596


 33 38  0  0  0  0  0  0  0  0999 V2000
   -5.1008   24.3254    2.1208 C   0  0  0  0  0  0  0  0  0  0  0  0
   -5.1075   24.9051    0.8453 C   0  0  0  0  0  0  0  0  0  0  0  0
   -6.2257   24.7572    0.0401 C   0  0  0  0  0  0  0  0  0  0  0  0
   -7.2883   24.0327    0.5450 C   0  0  0  0  0  0  0  0  0  0  0  0
   -7.2955   23.4465    1.7647 N   0  0  0  0  0  0  0  0  0  0  0  0
   -6.1950   23.5588    2.5541 C   0  0  0  0  0  0  0  0  0  0  0  0
   -2.9968   23.7245    2.8344 O   0  0  0  0  0  0  0  0  0  0  0  0
   -3.9084   24.5482    2.9501 C   0  0  0  0  0  0  0  0  0  0  0  0
   -3.8402   25.6139    3.8314 N   0  0  0  0  0  0  0  0  0  0  0  0
   -2.7365   25.6910    4.7960 C   0  0  0  0  0  0  0  0  0  0  0  0
   -3.1019   26.7773    5.8088 C   0  0  0  0  0  0  0  0  0  0  0  0
   -4.2057   27.4900    5.0939 C   0  0  0  0  0  0  0  0  0  0  0  0
   -4.8101   28.6806    5.4712 C   0  0  0  0  0  0  0  0  0  0  0  0
   -5.8505   29.1709    4.6846 C   0  0  0  0  0  0  0  0  0  0  0  0
   -6.2660   28.4697    3.5459 C   0  0  0  0  0  0  0  0  0  0  0  0
   -5.6528   27.2647    3.1808 C   0  0  0  0  0  0  0  0  0  0  0  0
   -4.6289   26.7717    3.9698 C   0  0  0  0  0  0  0  0  0  0  0  0
   -6.2189   22.9087    3.7923 N   0  0  0  0  0  0  0  0  0  0  0  0
   -6.2120   23.7892    4.9598 C   0  0  0  0  0  0  0  0  0  0  0  0
   -6.0779   22.9477    6.2243 C   0  0  0  0  0  0  0  0  0  0  0  0
   -7.2353   21.9444    6.3616 C   0  0  0  0  0  0  0  0  0  0  0  0
   -7.9850   21.7120    5.0424 C   0  0  0  0  0  0  0  0  0  0  0  0
   -7.0261   21.6825    3.8571 C   0  0  0  0  0  0  0  0  0  0  0  0
   -8.1817   22.3314    7.4614 C   0  0  0  0  0  0  0  0  0  0  0  0
   -8.2388   21.7834    8.6581 N   0  0  0  0  0  0  0  0  0  0  0  0
   -9.2362   22.4490    9.3271 C   0  0  0  0  0  0  0  0  0  0  0  0
   -9.7163   22.2702   10.6321 C   0  0  0  0  0  0  0  0  0  0  0  0
  -10.7581   23.0914   11.0824 C   0  0  0  0  0  0  0  0  0  0  0  0
  -11.3098   24.0682   10.2500 C   0  0  0  0  0  0  0  0  0  0  0  0
  -10.8435   24.2602    8.9439 C   0  0  0  0  0  0  0  0  0  0  0  0
   -9.8039   23.4293    8.5225 C   0  0  0  0  0  0  0  0  0  0  0  0
   -9.1148   23.3356    7.3414 N   0  0  0  0  0  0  0  0  0  0  0  0
   -9.2730   23.9017    6.5206 H   0  0  0  0  0  0  0  0  0  0  0  0
  7  8  2  0  0  0
  8  1  1  0  0  0
  1  2  1  0  0  0
  2  3  2  0  0  0
  3  4  1  0  0  0
  4  5  2  0  0  0
  5  6  1  0  0  0
  6 18  1  0  0  0
 18 19  1  0  0  0
 19 20  1  0  0  0
 20 21  1  0  0  0
 21 24  1  0  0  0
 24 25  2  0  0  0
 25 26  1  0  0  0
 26 27  2  0  0  0
 27 28  1  0  0  0
 28 29  2  0  0  0
 29 30  1  0  0  0
 30 31  2  0  0  0
 31 32  1  0  0  0
 21 22  1  0  0  0
 22 23  1  0  0  0
  8  9  1  0  0  0
  9 10  1  0  0  0
 10 11  1  0  0  0
 11 12  1  0  0  0
 12 13  2  0  0  0
 13 14  1  0  0  0
 14 15  2  0  0  0
 15 16  1  0  0  0
 16 17  2  0  0  0
  6  1  2  0  0  0
 23 18  1  0  0  0
 17  9  1  0  0  0
 32 24  1  0  0  0
 17 12  1  0  0  0
 31 26  1  0  0  0
 32 33  1  0  0  0
M  END
> <minimizedAffinity>
-10.50572

$$$$
OCNT-2311600


 23 25  0  0  0  0  0  0  0  0999 V2000
   -3.4733   28.3500    6.3835 C   0  0  0  0  0  0  0  0  0  0  0  0
   -2.5520   27.7959    6.9896 O   0  0  0  0  0  0  0  0  0  0  0  0
   -4.0952   27.7064    5.3011 N   0  0  0  0  0  0  0  0  0  0  0  0
   -3.5096   26.4657    4.8036 C   0  0  0  0  0  0  0  0  0  0  0  0
   -3.7530   26.3046    3.3087 C   0  0  0  0  0  0  0  0  0  0  0  0
   -5.2520   26.2896    2.9698 C   0  0  0  0  0  0  0  0  0  0  0  0
   -6.1000   26.9647    4.0558 C   0  0  0  0  0  0  0  0  0  0  0  0
   -5.3664   28.1268    4.7113 C   0  0  0  0  0  0  0  0  0  0  0  0
   -5.3607   32.3583    8.9522 C   0  0  0  0  0  0  0  0  0  0  0  0
   -4.7548   31.4088    7.9904 C   0  0  0  0  0  0  0  0  0  0  0  0
   -4.5744   30.0393    8.0335 C   0  0  0  0  0  0  0  0  0  0  0  0
   -4.9598   29.1051    9.1223 C   0  0  0  0  0  0  0  0  0  0  0  0
   -3.9254   29.7056    6.7956 C   0  0  0  0  0  0  0  0  0  0  0  0
   -3.7193   30.8189    6.0632 N   0  0  0  0  0  0  0  0  0  0  0  0
   -4.2266   31.8132    6.8009 N   0  0  0  0  0  0  0  0  0  0  0  0
   -4.1742   32.7566    6.4312 H   0  0  0  0  0  0  0  0  0  0  0  0
   -5.6412   24.9107    2.8435 O   0  0  0  0  0  0  0  0  0  0  0  0
   -6.1807   24.5582    1.6252 C   0  0  0  0  0  0  0  0  0  0  0  0
   -6.7755   23.3066    1.5302 C   0  0  0  0  0  0  0  0  0  0  0  0
   -7.3470   22.8495    0.3879 N   0  0  0  0  0  0  0  0  0  0  0  0
   -7.2957   23.7059   -0.6562 C   0  0  0  0  0  0  0  0  0  0  0  0
   -6.7040   24.9559   -0.5622 C   0  0  0  0  0  0  0  0  0  0  0  0
   -6.1343   25.4115    0.5782 N   0  0  0  0  0  0  0  0  0  0  0  0
  9 10  1  0  0  0
 10 11  2  0  0  0
 11 12  1  0  0  0
 11 13  1  0  0  0
 13  1  1  0  0  0
  1  2  2  0  0  0
  1  3  1  0  0  0
  3  4  1  0  0  0
  4  5  1  0  0  0
  5  6  1  0  0  0
  6 17  1  0  0  0
 17 18  1  0  0  0
 18 19  2  0  0  0
 19 20  1  0  0  0
 20 21  2  0  0  0
 21 22  1  0  0  0
 22 23  2  0  0  0
  6  7  1  0  0  0
  7  8  1  0  0  0
 13 14  2  0  0  0
 14 15  1  0  0  0
 15 10  1  0  0  0
  8  3  1  0  0  0
 23 18  1  0  0  0
 15 16  1  0  0  0
M  END
> <minimizedAffinity>
-8.11158

$$$$
OCNT-2311604


 26 29  0  0  0  0  0  0  0  0999 V2000
   -2.9033   30.3193    6.6686 N   0  0  0  0  0  0  0  0  0  0  0  0
   -2.6078   28.8811    6.7461 C   0  0  0  0  0  0  0  0  0  0  0  0
   -3.6636   28.0287    6.0067 C   0  0  0  0  0  0  0  0  0  0  0  0
   -5.0447   28.3596    6.3680 N   0  0  0  0  0  0  0  0  0  0  0  0
   -6.1915   27.8338    5.7647 C   0  0  0  0  0  0  0  0  0  0  0  0
   -7.3195   28.2274    6.0779 O   0  0  0  0  0  0  0  0  0  0  0  0
   -5.1871   29.3854    7.3958 C   0  0  0  0  0  0  0  0  0  0  0  0
   -4.2893   30.6115    7.1234 C   0  0  0  0  0  0  0  0  0  0  0  0
   -6.1124   26.7844    4.7006 C   0  0  0  0  0  0  0  0  0  0  0  0
   -5.8169   27.1441    3.3973 C   0  0  0  0  0  0  0  0  0  0  0  0
   -5.7714   26.1516    2.4152 C   0  0  0  0  0  0  0  0  0  0  0  0
   -6.0320   24.8254    2.7397 C   0  0  0  0  0  0  0  0  0  0  0  0
   -6.3099   24.5258    4.0289 N   0  0  0  0  0  0  0  0  0  0  0  0
   -6.3642   25.5020    5.0118 N   0  0  0  0  0  0  0  0  0  0  0  0
   -5.9775   23.8205    1.8007 N   0  0  0  0  0  0  0  0  0  0  0  0
   -6.0033   22.4313    2.2455 C   0  0  0  0  0  0  0  0  0  0  0  0
   -6.0450   21.6540    0.9338 C   0  0  0  0  0  0  0  0  0  0  0  0
   -6.9111   22.5403    0.0523 C   0  0  0  0  0  0  0  0  0  0  0  0
   -6.4922   23.9590    0.4430 C   0  0  0  0  0  0  0  0  0  0  0  0
   -2.4820   31.9898    8.5315 C   0  0  0  0  0  0  0  0  0  0  0  0
   -1.9077   31.1881    7.3497 C   0  0  0  0  0  0  0  0  0  0  0  0
   -0.6823   30.4096    7.8282 C   0  0  0  0  0  0  0  0  0  0  0  0
   -0.3078   30.3440    9.0932 N   0  0  0  0  0  0  0  0  0  0  0  0
    0.8358   29.5791    9.2050 C   0  0  0  0  0  0  0  0  0  0  0  0
    1.3267   29.0644    8.0263 C   0  0  0  0  0  0  0  0  0  0  0  0
    0.3289   29.5496    6.7223 S   0  0  0  0  0  0  0  0  0  0  0  0
 20 21  1  0  0  0
 21 22  1  0  0  0
 22 23  2  0  0  0
 23 24  1  0  0  0
 24 25  2  0  0  0
 25 26  1  0  0  0
 21  1  1  0  0  0
  1  2  1  0  0  0
  2  3  1  0  0  0
  3  4  1  0  0  0
  4  5  1  0  0  0
  5  6  2  0  0  0
  5  9  1  0  0  0
  9 10  2  0  0  0
 10 11  1  0  0  0
 11 12  2  0  0  0
 12 15  1  0  0  0
 15 16  1  0  0  0
 16 17  1  0  0  0
 17 18  1  0  0  0
 18 19  1  0  0  0
 12 13  1  0  0  0
 13 14  2  0  0  0
  4  7  1  0  0  0
  7  8  1  0  0  0
 26 22  1  0  0  0
  8  1  1  0  0  0
 14  9  1  0  0  0
 19 15  1  0  0  0
M  END
> <minimizedAffinity>
-9.25177

$$$$
OCNT-2311606


 24 27  0  0  0  0  0  0  0  0999 V2000
   -3.9710   24.7155    1.0134 O   0  0  0  0  0  0  0  0  0  0  0  0
   -4.3921   24.4686    2.1430 C   0  0  0  0  0  0  0  0  0  0  0  0
   -4.0306   25.1921    3.2802 N   0  0  0  0  0  0  0  0  0  0  0  0
   -4.7797   25.1579    4.5395 C   0  0  0  0  0  0  0  0  0  0  0  0
   -4.7196   26.4971    5.2660 C   0  0  0  0  0  0  0  0  0  0  0  0
   -3.2656   26.8834    5.5919 C   0  0  0  0  0  0  0  0  0  0  0  0
   -2.3059   26.5230    4.4381 C   0  0  0  0  0  0  0  0  0  0  0  0
   -3.0344   26.2506    3.1287 C   0  0  0  0  0  0  0  0  0  0  0  0
   -5.3308   23.3333    2.2948 C   0  0  0  0  0  0  0  0  0  0  0  0
   -4.9006   22.1249    2.8579 C   0  0  0  0  0  0  0  0  0  0  0  0
   -5.7966   21.0582    2.9769 C   0  0  0  0  0  0  0  0  0  0  0  0
   -7.1121   21.1983    2.5245 C   0  0  0  0  0  0  0  0  0  0  0  0
   -7.5338   22.3990    1.9464 C   0  0  0  0  0  0  0  0  0  0  0  0
   -6.6402   23.4664    1.8204 C   0  0  0  0  0  0  0  0  0  0  0  0
   -3.2211   28.3183    5.9151 N   0  0  0  0  0  0  0  0  0  0  0  0
   -4.1248   28.7615    5.7377 H   0  0  0  0  0  0  0  0  0  0  0  0
   -2.7717   28.6133    7.2889 C   0  0  0  0  0  0  0  0  0  0  0  0
   -1.6054   27.6582    7.6216 C   0  0  0  0  0  0  0  0  0  0  0  0
   -0.2397   28.1685    7.1520 C   0  0  0  0  0  0  0  0  0  0  0  0
   -0.0450   29.6685    7.4201 C   0  0  0  0  0  0  0  0  0  0  0  0
   -0.3432   30.0324    8.8830 C   0  0  0  0  0  0  0  0  0  0  0  0
   -1.8480   30.3430    8.9228 C   0  0  0  0  0  0  0  0  0  0  0  0
   -2.3546   30.0993    7.4871 C   0  0  0  0  0  0  0  0  0  0  0  0
   -1.1126   30.4537    6.6666 C   0  0  0  0  0  0  0  0  0  0  0  0
  1  2  2  0  0  0
  2  9  1  0  0  0
  9 10  2  0  0  0
 10 11  1  0  0  0
 11 12  2  0  0  0
 12 13  1  0  0  0
 13 14  2  0  0  0
  2  3  1  0  0  0
  3  4  1  0  0  0
  4  5  1  0  0  0
  5  6  1  0  0  0
  6 15  1  0  0  0
 15 17  1  0  0  0
 17 18  1  0  0  0
 18 19  1  0  0  0
 19 20  1  0  0  0
 20 21  1  0  0  0
 21 22  1  0  0  0
 22 23  1  0  0  0
 23 24  1  0  0  0
  6  7  1  0  0  0
  7  8  1  0  0  0
 14  9  1  0  0  0
  8  3  1  0  0  0
 23 17  1  0  0  0
 24 20  1  0  0  0
 15 16  1  0  0  0
M  END
> <minimizedAffinity>
-9.20387

$$$$
OCNT-2311610


 25 28  0  0  0  0  0  0  0  0999 V2000
   -0.8075   27.3259    5.6343 O   0  0  0  0  0  0  0  0  0  0  0  0
   -2.0107   27.2001    5.8684 C   0  0  0  0  0  0  0  0  0  0  0  0
   -2.8259   26.4161    5.0517 N   0  0  0  0  0  0  0  0  0  0  0  0
   -4.2236   26.0874    5.3397 C   0  0  0  0  0  0  0  0  0  0  0  0
   -4.6078   24.7318    4.7580 C   0  0  0  0  0  0  0  0  0  0  0  0
   -4.4398   24.6929    3.2194 C   0  0  0  0  0  0  0  0  0  0  0  0
   -3.3150   25.6590    2.7615 C   0  0  0  0  0  0  0  0  0  0  0  0
   -2.2507   25.8538    3.8318 C   0  0  0  0  0  0  0  0  0  0  0  0
   -4.0689   23.2389    2.7691 C   0  0  0  0  0  0  0  0  0  0  0  0
   -5.0057   22.1547    3.1130 N   0  0  0  0  0  0  0  0  0  0  0  0
   -6.4060   22.4877    2.8447 C   0  0  0  0  0  0  0  0  0  0  0  0
   -6.6010   23.2954    1.5936 C   0  0  0  0  0  0  0  0  0  0  0  0
   -7.1658   22.7334    0.4412 C   0  0  0  0  0  0  0  0  0  0  0  0
   -7.3517   23.5122   -0.7029 C   0  0  0  0  0  0  0  0  0  0  0  0
   -6.9801   24.8565   -0.7029 C   0  0  0  0  0  0  0  0  0  0  0  0
   -6.4104   25.4219    0.4369 C   0  0  0  0  0  0  0  0  0  0  0  0
   -6.1989   24.6367    1.5682 C   0  0  0  0  0  0  0  0  0  0  0  0
   -5.6640   25.2495    2.6644 O   0  0  0  0  0  0  0  0  0  0  0  0
   -4.7568   21.3377    2.5551 H   0  0  0  0  0  0  0  0  0  0  0  0
   -2.6812   27.8633    7.0695 C   0  0  0  0  0  0  0  0  0  0  0  0
   -2.8101   29.3413    6.8813 C   0  0  0  0  0  0  0  0  0  0  0  0
   -1.8490   30.3264    7.0059 C   0  0  0  0  0  0  0  0  0  0  0  0
   -2.2838   31.6217    6.8017 N   0  0  0  0  0  0  0  0  0  0  0  0
   -3.5609   31.6033    6.4917 C   0  0  0  0  0  0  0  0  0  0  0  0
   -4.3114   30.0619    6.4616 S   0  0  0  0  0  0  0  0  0  0  0  0
  1  2  2  0  0  0
  2 20  1  0  0  0
 20 21  1  0  0  0
 21 22  2  0  0  0
 22 23  1  0  0  0
 23 24  2  0  0  0
 24 25  1  0  0  0
  2  3  1  0  0  0
  3  4  1  0  0  0
  4  5  1  0  0  0
  5  6  1  0  0  0
  6  7  1  0  0  0
  7  8  1  0  0  0
  6  9  1  0  0  0
  9 10  1  0  0  0
 10 11  1  0  0  0
 11 12  1  0  0  0
 12 13  2  0  0  0
 13 14  1  0  0  0
 14 15  2  0  0  0
 15 16  1  0  0  0
 16 17  2  0  0  0
 17 18  1  0  0  0
 25 21  1  0  0  0
  8  3  1  0  0  0
 17 12  1  0  0  0
 18  6  1  0  0  0
 10 19  1  0  0  0
M  END
> <minimizedAffinity>
-9.49173

$$$$
OCNT-2311617


 25 28  0  0  0  0  0  0  0  0999 V2000
   -5.8222   22.1953    0.9615 C   0  0  0  0  0  0  0  0  0  0  0  0
   -6.4444   23.5151    1.0343 N   0  0  0  0  0  0  0  0  0  0  0  0
   -5.5637   24.5753    0.5363 C   0  0  0  0  0  0  0  0  0  0  0  0
   -4.4161   24.9353    1.4873 C   0  0  0  0  0  0  0  0  0  0  0  0
   -4.8894   25.3039    2.9186 C   0  0  0  0  0  0  0  0  0  0  0  0
   -5.8510   24.1694    3.3908 C   0  0  0  0  0  0  0  0  0  0  0  0
   -6.9468   23.8232    2.3747 C   0  0  0  0  0  0  0  0  0  0  0  0
   -5.6297   26.6708    2.8965 C   0  0  0  0  0  0  0  0  0  0  0  0
   -5.9521   27.2177    4.2861 C   0  0  0  0  0  0  0  0  0  0  0  0
   -4.7492   27.2675    5.1218 N   0  0  0  0  0  0  0  0  0  0  0  0
   -4.0911   25.9677    5.2742 C   0  0  0  0  0  0  0  0  0  0  0  0
   -3.6722   25.3792    3.9107 C   0  0  0  0  0  0  0  0  0  0  0  0
   -4.7366   28.1433    6.2026 C   0  0  0  0  0  0  0  0  0  0  0  0
   -5.8563   28.5481    6.7326 N   0  0  0  0  0  0  0  0  0  0  0  0
   -5.8297   29.4336    7.7808 C   0  0  0  0  0  0  0  0  0  0  0  0
   -4.7844   29.9437    8.3528 N   0  0  0  0  0  0  0  0  0  0  0  0
   -3.6276   29.5088    7.8337 N   0  0  0  0  0  0  0  0  0  0  0  0
   -2.3760   29.8586    8.2638 C   0  0  0  0  0  0  0  0  0  0  0  0
   -1.4755   29.1495    7.5099 C   0  0  0  0  0  0  0  0  0  0  0  0
    0.3901   29.1849    7.6531 Br  0  0  0  0  0  0  0  0  0  0  0  0
   -2.1865   28.3558    6.5900 C   0  0  0  0  0  0  0  0  0  0  0  0
   -3.5252   28.6272    6.7987 C   0  0  0  0  0  0  0  0  0  0  0  0
   -2.4033   26.0864    3.3823 C   0  0  0  0  0  0  0  0  0  0  0  0
   -1.2350   25.7683    4.1161 O   0  0  0  0  0  0  0  0  0  0  0  0
   -0.4747   26.1151    3.6188 H   0  0  0  0  0  0  0  0  0  0  0  0
  1  2  1  0  0  0
  2  3  1  0  0  0
  3  4  1  0  0  0
  4  5  1  0  0  0
  5  6  1  0  0  0
  6  7  1  0  0  0
  5  8  1  0  0  0
  8  9  1  0  0  0
  9 10  1  0  0  0
 10 13  1  0  0  0
 13 14  2  0  0  0
 14 15  1  0  0  0
 15 16  2  0  0  0
 16 17  1  0  0  0
 17 18  1  0  0  0
 18 19  2  0  0  0
 19 20  1  0  0  0
 19 21  1  0  0  0
 21 22  2  0  0  0
 10 11  1  0  0  0
 11 12  1  0  0  0
 12 23  1  0  0  0
 23 24  1  0  0  0
  7  2  1  0  0  0
 22 13  1  0  0  0
 12  5  1  0  0  0
 22 17  1  0  0  0
 24 25  1  0  0  0
M  END
> <minimizedAffinity>
-8.82101

$$$$
OCNT-2311621


 29 32  0  0  0  0  0  0  0  0999 V2000
   -2.2532   27.0263    6.7177 C   0  0  0  0  0  0  0  0  0  0  0  0
   -2.3262   25.9712    7.3368 O   0  0  0  0  0  0  0  0  0  0  0  0
   -2.0055   27.1153    5.3656 N   0  0  0  0  0  0  0  0  0  0  0  0
   -1.8739   28.0542    4.9999 H   0  0  0  0  0  0  0  0  0  0  0  0
   -4.2907   32.6266    9.1203 C   0  0  0  0  0  0  0  0  0  0  0  0
   -5.3038   31.9727    8.4228 C   0  0  0  0  0  0  0  0  0  0  0  0
   -5.0672   30.7327    7.8206 C   0  0  0  0  0  0  0  0  0  0  0  0
   -3.8287   30.1159    7.8957 C   0  0  0  0  0  0  0  0  0  0  0  0
   -3.6509   28.9249    7.3007 N   0  0  0  0  0  0  0  0  0  0  0  0
   -2.4176   28.3516    7.3985 C   0  0  0  0  0  0  0  0  0  0  0  0
   -1.3467   28.9204    8.0679 C   0  0  0  0  0  0  0  0  0  0  0  0
   -1.5454   30.1527    8.6787 C   0  0  0  0  0  0  0  0  0  0  0  0
   -2.7988   30.7766    8.6028 C   0  0  0  0  0  0  0  0  0  0  0  0
   -3.0365   32.0258    9.2094 C   0  0  0  0  0  0  0  0  0  0  0  0
   -4.7750   34.9286    8.7667 C   0  0  0  0  0  0  0  0  0  0  0  0
   -4.6514   33.8287    9.6599 O   0  0  0  0  0  0  0  0  0  0  0  0
   -1.6714   25.9733    4.5557 C   0  0  0  0  0  0  0  0  0  0  0  0
   -2.8059   25.6233    3.6286 C   0  0  0  0  0  0  0  0  0  0  0  0
   -2.8875   24.3611    3.0324 C   0  0  0  0  0  0  0  0  0  0  0  0
   -3.9594   24.0341    2.1906 C   0  0  0  0  0  0  0  0  0  0  0  0
   -4.9810   24.9645    1.9325 C   0  0  0  0  0  0  0  0  0  0  0  0
   -4.8955   26.2215    2.5429 C   0  0  0  0  0  0  0  0  0  0  0  0
   -5.8250   27.1687    2.3619 F   0  0  0  0  0  0  0  0  0  0  0  0
   -3.8268   26.5467    3.3803 C   0  0  0  0  0  0  0  0  0  0  0  0
   -6.0669   24.6200    1.0742 N   0  0  0  0  0  0  0  0  0  0  0  0
   -7.0135   23.6313    1.2433 C   0  0  0  0  0  0  0  0  0  0  0  0
   -7.8462   23.6935    0.1516 C   0  0  0  0  0  0  0  0  0  0  0  0
   -7.4567   24.6856   -0.6963 N   0  0  0  0  0  0  0  0  0  0  0  0
   -6.3991   25.2202   -0.1263 C   0  0  0  0  0  0  0  0  0  0  0  0
 15 16  1  0  0  0
 16  5  1  0  0  0
  5  6  2  0  0  0
  6  7  1  0  0  0
  7  8  2  0  0  0
  8  9  1  0  0  0
  9 10  2  0  0  0
 10  1  1  0  0  0
  1  2  2  0  0  0
  1  3  1  0  0  0
  3 17  1  0  0  0
 17 18  1  0  0  0
 18 19  1  0  0  0
 19 20  2  0  0  0
 20 21  1  0  0  0
 21 25  1  0  0  0
 25 26  1  0  0  0
 26 27  2  0  0  0
 27 28  1  0  0  0
 28 29  2  0  0  0
 21 22  2  0  0  0
 22 23  1  0  0  0
 22 24  1  0  0  0
 10 11  1  0  0  0
 11 12  2  0  0  0
 12 13  1  0  0  0
 13 14  2  0  0  0
 14  5  1  0  0  0
 13  8  1  0  0  0
 24 18  2  0  0  0
 29 25  1  0  0  0
  3  4  1  0  0  0
M  END
> <minimizedAffinity>
-9.14187

$$$$
OCNT-2311623


 28 31  0  0  0  0  0  0  0  0999 V2000
   -6.1286   28.8616    7.2725 C   0  0  0  0  0  0  0  0  0  0  0  0
   -6.5780   31.2224    7.5537 O   0  0  0  0  0  0  0  0  0  0  0  0
   -5.7751   30.2943    7.6649 C   0  0  0  0  0  0  0  0  0  0  0  0
   -4.4811   30.5102    8.1400 N   0  0  0  0  0  0  0  0  0  0  0  0
   -4.1322   31.8442    8.6254 C   0  0  0  0  0  0  0  0  0  0  0  0
   -3.0722   31.7836    9.7182 C   0  0  0  0  0  0  0  0  0  0  0  0
   -1.7882   31.0990    9.2462 C   0  0  0  0  0  0  0  0  0  0  0  0
   -2.0217   30.1013    8.0987 C   0  0  0  0  0  0  0  0  0  0  0  0
   -3.4280   29.4882    8.1667 C   0  0  0  0  0  0  0  0  0  0  0  0
   -0.9579   29.0293    8.0725 C   0  0  0  0  0  0  0  0  0  0  0  0
   -1.4319   27.6960    8.3097 O   0  0  0  0  0  0  0  0  0  0  0  0
    0.1798   29.1273    7.0915 C   0  0  0  0  0  0  0  0  0  0  0  0
    0.4356   29.3250    8.5592 C   0  0  0  0  0  0  0  0  0  0  0  0
   -1.3621   27.4569    9.2506 H   0  0  0  0  0  0  0  0  0  0  0  0
   -6.0572   28.5872    5.7879 C   0  0  0  0  0  0  0  0  0  0  0  0
   -6.2141   29.6249    4.8619 C   0  0  0  0  0  0  0  0  0  0  0  0
   -6.1442   29.3630    3.4937 C   0  0  0  0  0  0  0  0  0  0  0  0
   -5.9300   28.0612    3.0346 C   0  0  0  0  0  0  0  0  0  0  0  0
   -5.7985   27.0129    3.9440 C   0  0  0  0  0  0  0  0  0  0  0  0
   -5.8515   27.2824    5.3149 C   0  0  0  0  0  0  0  0  0  0  0  0
   -5.5790   25.7008    3.6241 O   0  0  0  0  0  0  0  0  0  0  0  0
   -4.9901   25.4210    2.3503 C   0  0  0  0  0  0  0  0  0  0  0  0
   -5.9229   24.6999    1.4020 C   0  0  0  0  0  0  0  0  0  0  0  0
   -6.2572   25.2889    0.1731 C   0  0  0  0  0  0  0  0  0  0  0  0
   -7.1384   24.6529   -0.7033 C   0  0  0  0  0  0  0  0  0  0  0  0
   -7.7034   23.4272   -0.3572 C   0  0  0  0  0  0  0  0  0  0  0  0
   -7.3915   22.8389    0.8666 C   0  0  0  0  0  0  0  0  0  0  0  0
   -6.5110   23.4740    1.7441 C   0  0  0  0  0  0  0  0  0  0  0  0
  2  3  2  0  0  0
  3  1  1  0  0  0
  1 15  1  0  0  0
 15 16  2  0  0  0
 16 17  1  0  0  0
 17 18  2  0  0  0
 18 19  1  0  0  0
 19 21  1  0  0  0
 21 22  1  0  0  0
 22 23  1  0  0  0
 23 24  2  0  0  0
 24 25  1  0  0  0
 25 26  2  0  0  0
 26 27  1  0  0  0
 27 28  2  0  0  0
 19 20  2  0  0  0
  3  4  1  0  0  0
  4  5  1  0  0  0
  5  6  1  0  0  0
  6  7  1  0  0  0
  7  8  1  0  0  0
  8 10  1  0  0  0
 10 11  1  0  0  0
 10 12  1  0  0  0
 12 13  1  0  0  0
  8  9  1  0  0  0
 20 15  1  0  0  0
  9  4  1  0  0  0
 28 23  1  0  0  0
 13 10  1  0  0  0
 11 14  1  0  0  0
M  END
> <minimizedAffinity>
-11.39695

$$$$
OCNT-2311624


 24 26  0  0  0  0  0  0  0  0999 V2000
   -3.5569   32.2706    9.3809 C   0  0  0  0  0  0  0  0  0  0  0  0
   -3.7930   33.4784    9.4263 O   0  0  0  0  0  0  0  0  0  0  0  0
   -4.3910   31.3865    8.7018 N   0  0  0  0  0  0  0  0  0  0  0  0
   -5.6390   31.8980    8.1382 C   0  0  0  0  0  0  0  0  0  0  0  0
   -6.7396   30.8427    8.1687 C   0  0  0  0  0  0  0  0  0  0  0  0
   -6.3562   29.5632    7.3969 C   0  0  0  0  0  0  0  0  0  0  0  0
   -4.8272   29.3972    7.2952 C   0  0  0  0  0  0  0  0  0  0  0  0
   -4.1071   29.9632    8.5140 C   0  0  0  0  0  0  0  0  0  0  0  0
   -2.3118   31.6742   10.0241 C   0  0  0  0  0  0  0  0  0  0  0  0
   -1.0414   31.9090    9.2070 C   0  0  0  0  0  0  0  0  0  0  0  0
   -0.1929   28.1165    6.0283 C   0  0  0  0  0  0  0  0  0  0  0  0
   -0.1662   29.0086    7.1608 N   0  0  0  0  0  0  0  0  0  0  0  0
   -0.8940   30.1485    7.3248 C   0  0  0  0  0  0  0  0  0  0  0  0
   -0.5385   30.6664    8.5527 C   0  0  0  0  0  0  0  0  0  0  0  0
    0.4146   29.7459    9.0460 C   0  0  0  0  0  0  0  0  0  0  0  0
    0.6480   28.7416    8.1982 N   0  0  0  0  0  0  0  0  0  0  0  0
   -7.0215   29.5455    6.0040 C   0  0  0  0  0  0  0  0  0  0  0  0
   -6.5383   28.4241    5.1152 C   0  0  0  0  0  0  0  0  0  0  0  0
   -6.0612   28.6910    3.8228 C   0  0  0  0  0  0  0  0  0  0  0  0
   -5.6069   27.6543    3.0027 C   0  0  0  0  0  0  0  0  0  0  0  0
   -5.6259   26.3406    3.4665 C   0  0  0  0  0  0  0  0  0  0  0  0
   -6.1001   26.0748    4.7451 C   0  0  0  0  0  0  0  0  0  0  0  0
   -6.1192   24.8120    5.1918 F   0  0  0  0  0  0  0  0  0  0  0  0
   -6.5548   27.0988    5.5700 C   0  0  0  0  0  0  0  0  0  0  0  0
 11 12  1  0  0  0
 12 13  1  0  0  0
 13 14  2  0  0  0
 14 10  1  0  0  0
 10  9  1  0  0  0
  9  1  1  0  0  0
  1  2  2  0  0  0
  1  3  1  0  0  0
  3  4  1  0  0  0
  4  5  1  0  0  0
  5  6  1  0  0  0
  6 17  1  0  0  0
 17 18  1  0  0  0
 18 19  2  0  0  0
 19 20  1  0  0  0
 20 21  2  0  0  0
 21 22  1  0  0  0
 22 23  1  0  0  0
 22 24  2  0  0  0
  6  7  1  0  0  0
  7  8  1  0  0  0
 14 15  1  0  0  0
 15 16  2  0  0  0
 16 12  1  0  0  0
  8  3  1  0  0  0
 24 18  1  0  0  0
M  END
> <minimizedAffinity>
-9.26314

$$$$
OCNT-2311626


 22 24  0  0  0  0  0  0  0  0999 V2000
   -6.5225   23.5453    1.4687 N   0  0  0  0  0  0  0  0  0  0  0  0
   -6.1799   24.7010    0.8156 C   0  0  0  0  0  0  0  0  0  0  0  0
   -5.5684   25.7041    1.3495 N   0  0  0  0  0  0  0  0  0  0  0  0
   -5.2404   25.5955    2.6791 C   0  0  0  0  0  0  0  0  0  0  0  0
   -5.5352   24.5283    3.4394 C   0  0  0  0  0  0  0  0  0  0  0  0
   -5.1689   24.4286    4.8902 C   0  0  0  0  0  0  0  0  0  0  0  0
   -4.2115   25.5495    5.3266 C   0  0  0  0  0  0  0  0  0  0  0  0
   -4.5390   26.8724    4.7631 N   0  0  0  0  0  0  0  0  0  0  0  0
   -4.5203   26.7896    3.2881 C   0  0  0  0  0  0  0  0  0  0  0  0
   -6.2572   23.3999    2.8147 C   0  0  0  0  0  0  0  0  0  0  0  0
   -6.5862   22.4227    3.4822 O   0  0  0  0  0  0  0  0  0  0  0  0
   -7.7406   22.9708   -0.5935 C   0  0  0  0  0  0  0  0  0  0  0  0
   -7.2496   22.4981    0.7669 C   0  0  0  0  0  0  0  0  0  0  0  0
   -5.8128   27.3785    5.2921 C   0  0  0  0  0  0  0  0  0  0  0  0
   -5.7696   28.8927    5.4523 C   0  0  0  0  0  0  0  0  0  0  0  0
   -6.3538   29.7303    4.3212 C   0  0  0  0  0  0  0  0  0  0  0  0
   -7.1002   29.6129    5.6126 C   0  0  0  0  0  0  0  0  0  0  0  0
   -4.5593   29.4630    6.1738 C   0  0  0  0  0  0  0  0  0  0  0  0
   -5.0331   29.8958    7.8505 S   0  0  0  0  0  0  0  0  0  0  0  0
   -3.4832   29.7759    8.7065 C   0  0  0  0  0  0  0  0  0  0  0  0
   -5.8940   28.8735    8.4147 O   0  0  0  0  0  0  0  0  0  0  0  0
   -5.4219   31.2942    7.8904 O   0  0  0  0  0  0  0  0  0  0  0  0
 12 13  1  0  0  0
 13  1  1  0  0  0
  1  2  1  0  0  0
  2  3  2  0  0  0
  3  4  1  0  0  0
  4  5  2  0  0  0
  5  6  1  0  0  0
  6  7  1  0  0  0
  7  8  1  0  0  0
  8 14  1  0  0  0
 14 15  1  0  0  0
 15 18  1  0  0  0
 18 19  1  0  0  0
 19 20  1  0  0  0
 19 21  2  0  0  0
 19 22  2  0  0  0
 15 16  1  0  0  0
 16 17  1  0  0  0
  8  9  1  0  0  0
  5 10  1  0  0  0
 10 11  2  0  0  0
 10  1  1  0  0  0
  9  4  1  0  0  0
 17 15  1  0  0  0
M  END
> <minimizedAffinity>
-7.16074

$$$$
OCNT-2311634


 25 27  0  0  0  0  0  0  0  0999 V2000
   -3.9352   27.0002    4.8314 C   0  0  0  0  0  0  0  0  0  0  0  0
   -5.2783   26.6380    4.8990 C   0  0  0  0  0  0  0  0  0  0  0  0
   -5.7919   25.6569    4.0398 C   0  0  0  0  0  0  0  0  0  0  0  0
   -4.9769   25.0199    3.0940 C   0  0  0  0  0  0  0  0  0  0  0  0
   -3.6255   25.3818    3.0380 C   0  0  0  0  0  0  0  0  0  0  0  0
   -3.1117   26.3616    3.8983 C   0  0  0  0  0  0  0  0  0  0  0  0
   -5.5547   24.0040    2.2155 C   0  0  0  0  0  0  0  0  0  0  0  0
   -5.4540   22.6400    2.4130 C   0  0  0  0  0  0  0  0  0  0  0  0
   -6.2583   21.8017    1.1512 S   0  0  0  0  0  0  0  0  0  0  0  0
   -6.6815   23.3026    0.4389 C   0  0  0  0  0  0  0  0  0  0  0  0
   -7.3893   23.3633   -0.7017 N   0  0  0  0  0  0  0  0  0  0  0  0
   -6.2503   24.3652    1.0685 N   0  0  0  0  0  0  0  0  0  0  0  0
   -7.3379   22.5637   -1.3201 H   0  0  0  0  0  0  0  0  0  0  0  0
   -7.3365   24.2544   -1.1829 H   0  0  0  0  0  0  0  0  0  0  0  0
   -2.4524   27.7771    6.7068 C   0  0  0  0  0  0  0  0  0  0  0  0
   -2.0244   26.7029    7.1153 O   0  0  0  0  0  0  0  0  0  0  0  0
   -3.3406   27.9675    5.6576 N   0  0  0  0  0  0  0  0  0  0  0  0
   -3.6545   28.9300    5.5606 H   0  0  0  0  0  0  0  0  0  0  0  0
   -3.9863   29.3469    8.7420 C   0  0  0  0  0  0  0  0  0  0  0  0
   -3.1582   29.9751    7.7026 N   0  0  0  0  0  0  0  0  0  0  0  0
   -2.6762   31.2961    8.1480 C   0  0  0  0  0  0  0  0  0  0  0  0
   -1.6233   31.2417    9.2603 C   0  0  0  0  0  0  0  0  0  0  0  0
   -0.4527   30.3376    8.8868 C   0  0  0  0  0  0  0  0  0  0  0  0
   -0.9330   28.9741    8.3964 C   0  0  0  0  0  0  0  0  0  0  0  0
   -1.9912   29.1320    7.2974 C   0  0  0  0  0  0  0  0  0  0  0  0
 19 20  1  0  0  0
 20 21  1  0  0  0
 21 22  1  0  0  0
 22 23  1  0  0  0
 23 24  1  0  0  0
 24 25  1  0  0  0
 25 15  1  0  0  0
 15 16  2  0  0  0
 15 17  1  0  0  0
 17  1  1  0  0  0
  1  2  1  0  0  0
  2  3  2  0  0  0
  3  4  1  0  0  0
  4  7  1  0  0  0
  7  8  2  0  0  0
  8  9  1  0  0  0
  9 10  1  0  0  0
 10 11  1  0  0  0
 10 12  2  0  0  0
  4  5  2  0  0  0
  5  6  1  0  0  0
 25 20  1  0  0  0
  6  1  2  0  0  0
 12  7  1  0  0  0
 17 18  1  0  0  0
 11 13  1  0  0  0
 11 14  1  0  0  0
M  END
> <minimizedAffinity>
-8.68025

$$$$
OCNT-2311636


 35 39  0  0  0  0  0  0  0  0999 V2000
   -4.5680   27.1694    5.0931 C   0  0  0  0  0  0  0  0  0  0  0  0
   -5.6693   27.7874    5.9193 C   0  0  0  0  0  0  0  0  0  0  0  0
   -6.9171   27.3509    5.9687 N   0  0  0  0  0  0  0  0  0  0  0  0
   -7.6475   28.3147    6.5954 N   0  0  0  0  0  0  0  0  0  0  0  0
   -6.8819   29.3309    6.9489 N   0  0  0  0  0  0  0  0  0  0  0  0
   -5.6089   28.9738    6.6453 N   0  0  0  0  0  0  0  0  0  0  0  0
   -4.5281   29.7825    7.0847 C   0  0  0  0  0  0  0  0  0  0  0  0
   -3.7411   30.4496    6.1102 C   0  0  0  0  0  0  0  0  0  0  0  0
   -2.6674   31.2652    6.4849 C   0  0  0  0  0  0  0  0  0  0  0  0
   -2.4158   31.4126    7.8294 C   0  0  0  0  0  0  0  0  0  0  0  0
   -1.4286   32.1677    8.3777 O   0  0  0  0  0  0  0  0  0  0  0  0
   -1.6788   31.9655    9.7841 C   0  0  0  0  0  0  0  0  0  0  0  0
   -2.7931   31.0843   10.0456 O   0  0  0  0  0  0  0  0  0  0  0  0
   -3.1901   30.7901    8.7783 C   0  0  0  0  0  0  0  0  0  0  0  0
   -4.2561   29.9774    8.4443 C   0  0  0  0  0  0  0  0  0  0  0  0
   -5.7335   27.9223    2.9373 C   0  0  0  0  0  0  0  0  0  0  0  0
   -5.0905   26.7108    3.6584 C   0  0  0  0  0  0  0  0  0  0  0  0
   -3.8730   26.2805    2.7970 C   0  0  0  0  0  0  0  0  0  0  0  0
   -6.1164   25.5342    3.7759 C   0  0  0  0  0  0  0  0  0  0  0  0
   -5.9607   24.3945    2.7892 C   0  0  0  0  0  0  0  0  0  0  0  0
   -5.4743   23.1483    3.2100 C   0  0  0  0  0  0  0  0  0  0  0  0
   -5.3321   22.0981    2.3013 C   0  0  0  0  0  0  0  0  0  0  0  0
   -5.6806   22.2795    0.9644 C   0  0  0  0  0  0  0  0  0  0  0  0
   -6.1766   23.5092    0.5362 C   0  0  0  0  0  0  0  0  0  0  0  0
   -6.3196   24.5601    1.4439 C   0  0  0  0  0  0  0  0  0  0  0  0
   -3.9265   26.0464    5.8135 N   0  0  0  0  0  0  0  0  0  0  0  0
   -4.0916   25.1714    5.3181 H   0  0  0  0  0  0  0  0  0  0  0  0
   -2.4874   26.2115    6.0374 C   0  0  0  0  0  0  0  0  0  0  0  0
   -2.1957   26.9970    7.3248 C   0  0  0  0  0  0  0  0  0  0  0  0
   -1.0132   27.9300    7.3478 C   0  0  0  0  0  0  0  0  0  0  0  0
   -0.2965   28.3203    6.2192 C   0  0  0  0  0  0  0  0  0  0  0  0
    0.7744   29.1539    6.2750 N   0  0  0  0  0  0  0  0  0  0  0  0
    1.1068   29.5937    7.5068 C   0  0  0  0  0  0  0  0  0  0  0  0
    0.4058   29.2174    8.6358 C   0  0  0  0  0  0  0  0  0  0  0  0
   -0.6584   28.3833    8.5836 N   0  0  0  0  0  0  0  0  0  0  0  0
 16 17  1  0  0  0
 17 18  1  0  0  0
 17 19  1  0  0  0
 19 20  1  0  0  0
 20 21  2  0  0  0
 21 22  1  0  0  0
 22 23  2  0  0  0
 23 24  1  0  0  0
 24 25  2  0  0  0
 17  1  1  0  0  0
  1 26  1  0  0  0
 26 28  1  0  0  0
 28 29  1  0  0  0
 29 30  1  0  0  0
 30 31  2  0  0  0
 31 32  1  0  0  0
 32 33  2  0  0  0
 33 34  1  0  0  0
 34 35  2  0  0  0
  1  2  1  0  0  0
  2  3  2  0  0  0
  3  4  1  0  0  0
  4  5  2  0  0  0
  5  6  1  0  0  0
  6  7  1  0  0  0
  7  8  1  0  0  0
  8  9  2  0  0  0
  9 10  1  0  0  0
 10 11  1  0  0  0
 11 12  1  0  0  0
 12 13  1  0  0  0
 13 14  1  0  0  0
 14 15  1  0  0  0
 25 20  1  0  0  0
 35 30  1  0  0  0
  6  2  1  0  0  0
 15  7  2  0  0  0
 14 10  2  0  0  0
 26 27  1  0  0  0
M  END
> <minimizedAffinity>
-9.30441

$$$$
OCNT-2311637


 31 35  0  0  0  0  0  0  0  0999 V2000
   -6.5290   29.0323    5.2088 C   0  0  0  0  0  0  0  0  0  0  0  0
   -6.5787   27.6539    5.5139 C   0  0  0  0  0  0  0  0  0  0  0  0
   -6.2072   26.8872    4.4108 C   0  0  0  0  0  0  0  0  0  0  0  0
   -6.1346   25.5201    4.3363 C   0  0  0  0  0  0  0  0  0  0  0  0
   -5.6976   25.1993    3.0799 O   0  0  0  0  0  0  0  0  0  0  0  0
   -5.4915   26.3408    2.3267 N   0  0  0  0  0  0  0  0  0  0  0  0
   -5.7877   27.3823    3.1186 C   0  0  0  0  0  0  0  0  0  0  0  0
   -5.7308   28.7625    2.8539 C   0  0  0  0  0  0  0  0  0  0  0  0
   -6.1110   29.5705    3.9476 C   0  0  0  0  0  0  0  0  0  0  0  0
   -8.0558   30.3390    6.3552 O   0  0  0  0  0  0  0  0  0  0  0  0
   -6.8864   29.9724    6.2918 C   0  0  0  0  0  0  0  0  0  0  0  0
   -5.8881   30.4056    7.1563 N   0  0  0  0  0  0  0  0  0  0  0  0
   -6.2914   31.1108    8.3746 C   0  0  0  0  0  0  0  0  0  0  0  0
   -5.2409   32.1332    8.8108 C   0  0  0  0  0  0  0  0  0  0  0  0
   -3.9470   31.5258    8.9340 O   0  0  0  0  0  0  0  0  0  0  0  0
   -3.5142   30.9982    7.6657 C   0  0  0  0  0  0  0  0  0  0  0  0
   -4.4990   29.9215    7.1581 C   0  0  0  0  0  0  0  0  0  0  0  0
   -2.1159   30.4257    7.8013 C   0  0  0  0  0  0  0  0  0  0  0  0
   -1.5570   29.6172    6.7964 C   0  0  0  0  0  0  0  0  0  0  0  0
   -0.2582   29.1221    6.9231 C   0  0  0  0  0  0  0  0  0  0  0  0
    0.4877   29.4372    8.0515 C   0  0  0  0  0  0  0  0  0  0  0  0
    1.7346   28.9634    8.1725 F   0  0  0  0  0  0  0  0  0  0  0  0
   -0.0403   30.2384    9.0562 C   0  0  0  0  0  0  0  0  0  0  0  0
   -1.3395   30.7342    8.9320 C   0  0  0  0  0  0  0  0  0  0  0  0
   -6.4060   24.3853    5.2071 C   0  0  0  0  0  0  0  0  0  0  0  0
   -7.7207   24.0407    5.5587 C   0  0  0  0  0  0  0  0  0  0  0  0
   -7.9707   22.9500    6.3965 C   0  0  0  0  0  0  0  0  0  0  0  0
   -6.9077   22.1990    6.8818 C   0  0  0  0  0  0  0  0  0  0  0  0
   -7.1494   21.1541    7.6835 F   0  0  0  0  0  0  0  0  0  0  0  0
   -5.5989   22.5152    6.5433 C   0  0  0  0  0  0  0  0  0  0  0  0
   -5.3487   23.6051    5.7056 C   0  0  0  0  0  0  0  0  0  0  0  0
 10 11  2  0  0  0
 11  1  1  0  0  0
  1  2  2  0  0  0
  2  3  1  0  0  0
  3  4  2  0  0  0
  4 25  1  0  0  0
 25 26  1  0  0  0
 26 27  2  0  0  0
 27 28  1  0  0  0
 28 29  1  0  0  0
 28 30  2  0  0  0
 30 31  1  0  0  0
  4  5  1  0  0  0
  5  6  1  0  0  0
  6  7  2  0  0  0
  7  8  1  0  0  0
  8  9  2  0  0  0
 11 12  1  0  0  0
 12 13  1  0  0  0
 13 14  1  0  0  0
 14 15  1  0  0  0
 15 16  1  0  0  0
 16 18  1  0  0  0
 18 19  1  0  0  0
 19 20  2  0  0  0
 20 21  1  0  0  0
 21 22  1  0  0  0
 21 23  2  0  0  0
 23 24  1  0  0  0
 16 17  1  0  0  0
  9  1  1  0  0  0
 17 12  1  0  0  0
  7  3  1  0  0  0
 24 18  2  0  0  0
 31 25  2  0  0  0
M  END
> <minimizedAffinity>
-12.10596

$$$$
OCNT-2311638


 29 32  0  0  0  0  0  0  0  0999 V2000
   -3.0040   26.5114    6.2453 N   0  0  0  0  0  0  0  0  0  0  0  0
   -2.7070   26.2045    4.9388 C   0  0  0  0  0  0  0  0  0  0  0  0
   -1.5548   26.2113    4.5162 O   0  0  0  0  0  0  0  0  0  0  0  0
   -3.9593   26.5896    6.5636 H   0  0  0  0  0  0  0  0  0  0  0  0
   -3.8080   25.7767    4.1298 C   0  0  0  0  0  0  0  0  0  0  0  0
   -3.7814   24.7166    3.2429 C   0  0  0  0  0  0  0  0  0  0  0  0
   -5.0268   24.4686    2.7669 N   0  0  0  0  0  0  0  0  0  0  0  0
   -5.8434   25.3593    3.3049 N   0  0  0  0  0  0  0  0  0  0  0  0
   -5.1068   26.2463    4.0303 N   0  0  0  0  0  0  0  0  0  0  0  0
   -5.7168   27.4415    4.5020 C   0  0  0  0  0  0  0  0  0  0  0  0
   -5.7412   28.6110    3.7350 C   0  0  0  0  0  0  0  0  0  0  0  0
   -6.3526   29.7643    4.2365 C   0  0  0  0  0  0  0  0  0  0  0  0
   -6.9533   29.7571    5.4932 C   0  0  0  0  0  0  0  0  0  0  0  0
   -6.9593   28.5900    6.2507 C   0  0  0  0  0  0  0  0  0  0  0  0
   -6.3514   27.4338    5.7568 C   0  0  0  0  0  0  0  0  0  0  0  0
   -1.9667   26.8619    7.1985 C   0  0  0  0  0  0  0  0  0  0  0  0
   -1.2846   29.2019    8.1862 C   0  0  0  0  0  0  0  0  0  0  0  0
   -2.0618   30.2827    8.5773 C   0  0  0  0  0  0  0  0  0  0  0  0
   -1.7235   31.6390    9.1006 C   0  0  0  0  0  0  0  0  0  0  0  0
   -2.9158   32.3024    9.7984 C   0  0  0  0  0  0  0  0  0  0  0  0
   -4.1948   32.1458    8.9744 C   0  0  0  0  0  0  0  0  0  0  0  0
   -4.5285   30.6683    8.7783 C   0  0  0  0  0  0  0  0  0  0  0  0
   -3.3603   29.8947    8.3981 N   0  0  0  0  0  0  0  0  0  0  0  0
   -3.4984   28.6572    7.9030 N   0  0  0  0  0  0  0  0  0  0  0  0
   -2.2336   28.2209    7.7672 C   0  0  0  0  0  0  0  0  0  0  0  0
    0.1648   29.0811    8.2061 C   0  0  0  0  0  0  0  0  0  0  0  0
    0.8539   29.4417    9.1530 O   0  0  0  0  0  0  0  0  0  0  0  0
    0.6712   29.4701    5.9536 C   0  0  0  0  0  0  0  0  0  0  0  0
    0.6682   28.5560    7.0496 O   0  0  0  0  0  0  0  0  0  0  0  0
 28 29  1  0  0  0
 29 26  1  0  0  0
 26 27  2  0  0  0
 26 17  1  0  0  0
 17 18  2  0  0  0
 18 19  1  0  0  0
 19 20  1  0  0  0
 20 21  1  0  0  0
 21 22  1  0  0  0
 22 23  1  0  0  0
 23 24  1  0  0  0
 24 25  2  0  0  0
 25 16  1  0  0  0
 16  1  1  0  0  0
  1  2  1  0  0  0
  2  3  2  0  0  0
  2  5  1  0  0  0
  5  6  2  0  0  0
  6  7  1  0  0  0
  7  8  2  0  0  0
  8  9  1  0  0  0
  9 10  1  0  0  0
 10 11  2  0  0  0
 11 12  1  0  0  0
 12 13  2  0  0  0
 13 14  1  0  0  0
 14 15  2  0  0  0
 25 17  1  0  0  0
  9  5  1  0  0  0
 15 10  1  0  0  0
 23 18  1  0  0  0
  1  4  1  0  0  0
M  END
> <minimizedAffinity>
-9.52266

$$$$
OCNT-2311652


 24 26  0  0  0  0  0  0  0  0999 V2000
   -4.0203   29.0281    7.4432 C   0  0  0  0  0  0  0  0  0  0  0  0
   -2.7944   28.9944    7.5480 O   0  0  0  0  0  0  0  0  0  0  0  0
   -4.6797   28.2829    6.4569 N   0  0  0  0  0  0  0  0  0  0  0  0
   -6.0831   28.4734    6.0818 C   0  0  0  0  0  0  0  0  0  0  0  0
   -6.2888   28.2669    4.5851 C   0  0  0  0  0  0  0  0  0  0  0  0
   -5.8870   26.8473    4.1379 C   0  0  0  0  0  0  0  0  0  0  0  0
   -4.7136   26.3009    4.9764 C   0  0  0  0  0  0  0  0  0  0  0  0
   -3.8759   27.4067    5.6112 C   0  0  0  0  0  0  0  0  0  0  0  0
   -4.9123   31.1971    8.4918 C   0  0  0  0  0  0  0  0  0  0  0  0
   -4.8369   29.8217    8.3334 C   0  0  0  0  0  0  0  0  0  0  0  0
   -5.9740   29.0442    9.3534 S   0  0  0  0  0  0  0  0  0  0  0  0
   -6.4424   30.5717    9.9652 C   0  0  0  0  0  0  0  0  0  0  0  0
   -5.8246   31.6135    9.4564 N   0  0  0  0  0  0  0  0  0  0  0  0
   -4.8801   33.5955    7.7888 C   0  0  0  0  0  0  0  0  0  0  0  0
   -4.1612   32.2477    7.7155 C   0  0  0  0  0  0  0  0  0  0  0  0
   -2.7161   32.3879    8.1998 C   0  0  0  0  0  0  0  0  0  0  0  0
   -5.5991   26.8457    2.6220 C   0  0  0  0  0  0  0  0  0  0  0  0
   -4.8841   25.5747    2.1419 C   0  0  0  0  0  0  0  0  0  0  0  0
   -5.7863   24.6657    1.3045 C   0  0  0  0  0  0  0  0  0  0  0  0
   -5.7094   23.2689    1.6744 N   0  0  0  0  0  0  0  0  0  0  0  0
   -5.1819   22.7676    2.8324 C   0  0  0  0  0  0  0  0  0  0  0  0
   -5.3200   21.4036    2.7214 C   0  0  0  0  0  0  0  0  0  0  0  0
   -5.9066   21.0694    1.5267 N   0  0  0  0  0  0  0  0  0  0  0  0
   -6.1196   22.2119    0.9128 C   0  0  0  0  0  0  0  0  0  0  0  0
 14 15  1  0  0  0
 15 16  1  0  0  0
 15  9  1  0  0  0
  9 10  2  0  0  0
 10  1  1  0  0  0
  1  2  2  0  0  0
  1  3  1  0  0  0
  3  4  1  0  0  0
  4  5  1  0  0  0
  5  6  1  0  0  0
  6 17  1  0  0  0
 17 18  1  0  0  0
 18 19  1  0  0  0
 19 20  1  0  0  0
 20 21  1  0  0  0
 21 22  2  0  0  0
 22 23  1  0  0  0
 23 24  2  0  0  0
  6  7  1  0  0  0
  7  8  1  0  0  0
 10 11  1  0  0  0
 11 12  1  0  0  0
 12 13  2  0  0  0
 13  9  1  0  0  0
  8  3  1  0  0  0
 24 20  1  0  0  0
M  END
> <minimizedAffinity>
-8.03142

$$$$
