OCNT-2317309


 29 32  0  0  0  0  0  0  0  0999 V2000
   -6.4243   28.6031    6.3470 C   0  0  0  0  0  0  0  0  0  0  0  0
   -7.3230   29.3894    6.0601 O   0  0  0  0  0  0  0  0  0  0  0  0
   -5.4499   28.7941    7.3087 N   0  0  0  0  0  0  0  0  0  0  0  0
   -4.6450   28.1795    7.1996 H   0  0  0  0  0  0  0  0  0  0  0  0
   -5.3064   29.9260    8.0868 C   0  0  0  0  0  0  0  0  0  0  0  0
   -6.2673   30.4299    8.9394 C   0  0  0  0  0  0  0  0  0  0  0  0
   -5.6677   31.5251    9.5740 C   0  0  0  0  0  0  0  0  0  0  0  0
   -4.4372   31.7602    9.1231 N   0  0  0  0  0  0  0  0  0  0  0  0
   -4.2536   30.8227    8.1490 N   0  0  0  0  0  0  0  0  0  0  0  0
   -3.1593   31.0528    7.2112 C   0  0  0  0  0  0  0  0  0  0  0  0
   -1.9253   30.2947    7.6246 C   0  0  0  0  0  0  0  0  0  0  0  0
   -0.9642   30.6660    8.5492 C   0  0  0  0  0  0  0  0  0  0  0  0
    0.0637   29.6888    8.6880 C   0  0  0  0  0  0  0  0  0  0  0  0
   -0.1502   28.5970    7.8738 C   0  0  0  0  0  0  0  0  0  0  0  0
   -1.5774   28.7560    6.9439 S   0  0  0  0  0  0  0  0  0  0  0  0
   -6.2141   27.3163    5.5297 C   0  0  0  0  0  0  0  0  0  0  0  0
   -5.7001   25.0092    3.1763 N   0  0  0  0  0  0  0  0  0  0  0  0
   -5.4577   26.1941    2.3404 C   0  0  0  0  0  0  0  0  0  0  0  0
   -5.5467   27.4889    3.1926 C   0  0  0  0  0  0  0  0  0  0  0  0
   -5.0550   27.4198    4.5983 N   0  0  0  0  0  0  0  0  0  0  0  0
   -4.1613   26.2401    4.7274 C   0  0  0  0  0  0  0  0  0  0  0  0
   -4.7767   24.8744    4.3217 C   0  0  0  0  0  0  0  0  0  0  0  0
   -7.6915   22.7446   -0.5670 C   0  0  0  0  0  0  0  0  0  0  0  0
   -6.8460   22.6970    0.6672 C   0  0  0  0  0  0  0  0  0  0  0  0
   -6.3720   21.5009    1.0512 N   0  0  0  0  0  0  0  0  0  0  0  0
   -5.6560   21.4946    2.1848 C   0  0  0  0  0  0  0  0  0  0  0  0
   -5.3970   22.6246    2.9254 C   0  0  0  0  0  0  0  0  0  0  0  0
   -5.9132   23.8207    2.4577 C   0  0  0  0  0  0  0  0  0  0  0  0
   -6.6531   23.8516    1.3333 N   0  0  0  0  0  0  0  0  0  0  0  0
 23 24  1  0  0  0
 24 25  2  0  0  0
 25 26  1  0  0  0
 26 27  2  0  0  0
 27 28  1  0  0  0
 28 17  1  0  0  0
 17 18  1  0  0  0
 18 19  1  0  0  0
 19 20  1  0  0  0
 20 16  1  0  0  0
 16  1  1  0  0  0
  1  2  2  0  0  0
  1  3  1  0  0  0
  3  5  1  0  0  0
  5  6  2  0  0  0
  6  7  1  0  0  0
  7  8  2  0  0  0
  8  9  1  0  0  0
  9 10  1  0  0  0
 10 11  1  0  0  0
 11 12  2  0  0  0
 12 13  1  0  0  0
 13 14  2  0  0  0
 14 15  1  0  0  0
 20 21  1  0  0  0
 21 22  1  0  0  0
 28 29  2  0  0  0
 29 24  1  0  0  0
 22 17  1  0  0  0
  9  5  1  0  0  0
 15 11  1  0  0  0
  3  4  1  0  0  0
M  END
> <minimizedAffinity>
-9.14829

$$$$
OCNT-2317310


 25 27  0  0  0  0  0  0  0  0999 V2000
   -5.2348   31.2816    8.5367 N   0  0  0  0  0  0  0  0  0  0  0  0
   -6.2552   30.6748    9.4069 C   0  0  0  0  0  0  0  0  0  0  0  0
   -6.1914   29.1404    9.3314 C   0  0  0  0  0  0  0  0  0  0  0  0
   -6.3769   28.6784    7.9865 O   0  0  0  0  0  0  0  0  0  0  0  0
   -5.3538   29.2200    7.1268 C   0  0  0  0  0  0  0  0  0  0  0  0
   -5.3862   30.7715    7.1596 C   0  0  0  0  0  0  0  0  0  0  0  0
   -5.5573   28.7056    5.7139 C   0  0  0  0  0  0  0  0  0  0  0  0
   -5.4225   27.3426    5.3989 C   0  0  0  0  0  0  0  0  0  0  0  0
   -5.6388   26.8821    4.0968 C   0  0  0  0  0  0  0  0  0  0  0  0
   -5.9980   27.7788    3.0935 C   0  0  0  0  0  0  0  0  0  0  0  0
   -6.1374   29.1265    3.4006 C   0  0  0  0  0  0  0  0  0  0  0  0
   -6.4868   29.9892    2.4371 F   0  0  0  0  0  0  0  0  0  0  0  0
   -5.9241   29.5958    4.6932 C   0  0  0  0  0  0  0  0  0  0  0  0
   -5.1789   32.7492    8.6229 C   0  0  0  0  0  0  0  0  0  0  0  0
   -3.9272   33.3610    9.2610 C   0  0  0  0  0  0  0  0  0  0  0  0
   -2.5225   31.9187   10.5831 O   0  0  0  0  0  0  0  0  0  0  0  0
   -2.8394   32.3183    9.4693 C   0  0  0  0  0  0  0  0  0  0  0  0
   -2.2907   31.9162    8.2607 N   0  0  0  0  0  0  0  0  0  0  0  0
   -2.6688   32.3436    7.4248 H   0  0  0  0  0  0  0  0  0  0  0  0
   -1.2626   30.9730    8.0531 C   0  0  0  0  0  0  0  0  0  0  0  0
   -0.4196   30.4995    9.0596 C   0  0  0  0  0  0  0  0  0  0  0  0
    0.5771   29.5622    8.7675 C   0  0  0  0  0  0  0  0  0  0  0  0
    0.7392   29.0907    7.4672 C   0  0  0  0  0  0  0  0  0  0  0  0
   -0.0957   29.5560    6.4558 C   0  0  0  0  0  0  0  0  0  0  0  0
   -1.0913   30.4922    6.7476 C   0  0  0  0  0  0  0  0  0  0  0  0
 16 17  2  0  0  0
 17 15  1  0  0  0
 15 14  1  0  0  0
 14  1  1  0  0  0
  1  2  1  0  0  0
  2  3  1  0  0  0
  3  4  1  0  0  0
  4  5  1  0  0  0
  5  7  1  0  0  0
  7  8  2  0  0  0
  8  9  1  0  0  0
  9 10  2  0  0  0
 10 11  1  0  0  0
 11 12  1  0  0  0
 11 13  2  0  0  0
  5  6  1  0  0  0
 17 18  1  0  0  0
 18 20  1  0  0  0
 20 21  2  0  0  0
 21 22  1  0  0  0
 22 23  2  0  0  0
 23 24  1  0  0  0
 24 25  2  0  0  0
  6  1  1  0  0  0
 25 20  1  0  0  0
 13  7  1  0  0  0
 18 19  1  0  0  0
M  END
> <minimizedAffinity>
-9.84607

$$$$
OCNT-2317311


 25 27  0  0  0  0  0  0  0  0999 V2000
   -3.2060   29.1634    6.6359 C   0  0  0  0  0  0  0  0  0  0  0  0
   -4.7244   29.1121    6.3990 C   0  0  0  0  0  0  0  0  0  0  0  0
   -5.0489   28.2517    5.1778 C   0  0  0  0  0  0  0  0  0  0  0  0
   -4.4775   26.9059    5.3575 N   0  0  0  0  0  0  0  0  0  0  0  0
   -3.0154   26.9002    5.5305 C   0  0  0  0  0  0  0  0  0  0  0  0
   -2.6387   27.7388    6.7522 C   0  0  0  0  0  0  0  0  0  0  0  0
   -0.3412   29.9071    7.2979 C   0  0  0  0  0  0  0  0  0  0  0  0
   -1.4996   30.3626    8.1439 C   0  0  0  0  0  0  0  0  0  0  0  0
   -1.2270   31.1566    9.2717 C   0  0  0  0  0  0  0  0  0  0  0  0
   -2.2591   31.6043   10.0863 C   0  0  0  0  0  0  0  0  0  0  0  0
   -1.9762   32.3594   11.1560 F   0  0  0  0  0  0  0  0  0  0  0  0
   -3.5757   31.2801    9.8069 C   0  0  0  0  0  0  0  0  0  0  0  0
   -3.8642   30.4937    8.6922 C   0  0  0  0  0  0  0  0  0  0  0  0
   -2.8403   30.0222    7.8430 C   0  0  0  0  0  0  0  0  0  0  0  0
   -4.8925   26.0122    4.3416 C   0  0  0  0  0  0  0  0  0  0  0  0
   -4.1420   25.9039    3.1732 C   0  0  0  0  0  0  0  0  0  0  0  0
   -4.5321   25.0191    2.1679 C   0  0  0  0  0  0  0  0  0  0  0  0
   -5.6739   24.2611    2.3587 C   0  0  0  0  0  0  0  0  0  0  0  0
   -6.3806   24.3467    3.5027 N   0  0  0  0  0  0  0  0  0  0  0  0
   -5.9853   25.2291    4.4907 N   0  0  0  0  0  0  0  0  0  0  0  0
   -6.0986   23.2736    1.3212 C   0  0  0  0  0  0  0  0  0  0  0  0
   -5.8493   22.0851    1.5396 O   0  0  0  0  0  0  0  0  0  0  0  0
   -6.7480   23.6888    0.1524 N   0  0  0  0  0  0  0  0  0  0  0  0
   -7.3597   22.6865   -0.7033 C   0  0  0  0  0  0  0  0  0  0  0  0
   -6.8958   25.0733   -0.2732 C   0  0  0  0  0  0  0  0  0  0  0  0
  7  8  1  0  0  0
  8  9  1  0  0  0
  9 10  2  0  0  0
 10 11  1  0  0  0
 10 12  1  0  0  0
 12 13  2  0  0  0
 13 14  1  0  0  0
 14  1  1  0  0  0
  1  2  1  0  0  0
  2  3  1  0  0  0
  3  4  1  0  0  0
  4 15  1  0  0  0
 15 16  2  0  0  0
 16 17  1  0  0  0
 17 18  2  0  0  0
 18 21  1  0  0  0
 21 22  2  0  0  0
 21 23  1  0  0  0
 23 24  1  0  0  0
 23 25  1  0  0  0
 18 19  1  0  0  0
 19 20  2  0  0  0
  4  5  1  0  0  0
  5  6  1  0  0  0
 14  8  2  0  0  0
  6  1  1  0  0  0
 20 15  1  0  0  0
M  END
> <minimizedAffinity>
-9.18499

$$$$
OCNT-2317322


 25 27  0  0  0  0  0  0  0  0999 V2000
   -3.9718   26.9331    3.3848 C   0  0  0  0  0  0  0  0  0  0  0  0
   -3.2499   26.3360    4.5278 N   0  0  0  0  0  0  0  0  0  0  0  0
   -1.8354   26.0794    4.1864 C   0  0  0  0  0  0  0  0  0  0  0  0
   -1.0291   26.3960    5.4432 C   0  0  0  0  0  0  0  0  0  0  0  0
   -2.0684   26.6980    6.5137 C   0  0  0  0  0  0  0  0  0  0  0  0
   -3.2385   27.2353    5.6858 C   0  0  0  0  0  0  0  0  0  0  0  0
   -1.6441   27.6902    7.6109 C   0  0  0  0  0  0  0  0  0  0  0  0
   -2.0436   29.0933    7.4889 N   0  0  0  0  0  0  0  0  0  0  0  0
   -2.7802   29.6224    8.6407 C   0  0  0  0  0  0  0  0  0  0  0  0
   -2.8422   31.1533    8.6791 C   0  0  0  0  0  0  0  0  0  0  0  0
   -2.8816   31.7488    7.2813 C   0  0  0  0  0  0  0  0  0  0  0  0
   -1.6988   31.2710    6.4334 C   0  0  0  0  0  0  0  0  0  0  0  0
   -1.0318   30.0019    6.9701 C   0  0  0  0  0  0  0  0  0  0  0  0
   -6.0912   25.8296    3.6947 O   0  0  0  0  0  0  0  0  0  0  0  0
   -5.1268   26.0141    2.9585 C   0  0  0  0  0  0  0  0  0  0  0  0
   -4.8902   25.4759    1.7030 N   0  0  0  0  0  0  0  0  0  0  0  0
   -4.1357   25.9477    1.2089 H   0  0  0  0  0  0  0  0  0  0  0  0
   -5.6403   24.5327    0.9739 C   0  0  0  0  0  0  0  0  0  0  0  0
   -5.4473   23.1888    1.3339 C   0  0  0  0  0  0  0  0  0  0  0  0
   -6.1367   22.1682    0.6770 C   0  0  0  0  0  0  0  0  0  0  0  0
   -5.9399   20.8906    1.0458 F   0  0  0  0  0  0  0  0  0  0  0  0
   -7.0298   22.4551   -0.3448 C   0  0  0  0  0  0  0  0  0  0  0  0
   -7.2438   23.7858   -0.7024 C   0  0  0  0  0  0  0  0  0  0  0  0
   -6.5622   24.8156   -0.0424 C   0  0  0  0  0  0  0  0  0  0  0  0
   -6.8616   26.0685   -0.4084 F   0  0  0  0  0  0  0  0  0  0  0  0
 14 15  2  0  0  0
 15  1  1  0  0  0
  1  2  1  0  0  0
  2  3  1  0  0  0
  3  4  1  0  0  0
  4  5  1  0  0  0
  5  7  1  0  0  0
  7  8  1  0  0  0
  8  9  1  0  0  0
  9 10  1  0  0  0
 10 11  1  0  0  0
 11 12  1  0  0  0
 12 13  1  0  0  0
  5  6  1  0  0  0
 15 16  1  0  0  0
 16 18  1  0  0  0
 18 19  1  0  0  0
 19 20  2  0  0  0
 20 21  1  0  0  0
 20 22  1  0  0  0
 22 23  2  0  0  0
 23 24  1  0  0  0
 24 25  1  0  0  0
  6  2  1  0  0  0
 24 18  2  0  0  0
 13  8  1  0  0  0
 16 17  1  0  0  0
M  END
> <minimizedAffinity>
-9.24890

$$$$
OCNT-2317326


 24 26  0  0  0  0  0  0  0  0999 V2000
   -5.4818   29.5693    7.1451 C   0  0  0  0  0  0  0  0  0  0  0  0
   -6.4972   28.9334    8.1188 C   0  0  0  0  0  0  0  0  0  0  0  0
   -6.3882   29.3850    9.5719 C   0  0  0  0  0  0  0  0  0  0  0  0
   -6.0913   30.8743    9.7409 C   0  0  0  0  0  0  0  0  0  0  0  0
   -5.7020   31.5897    8.4475 C   0  0  0  0  0  0  0  0  0  0  0  0
   -4.7770   30.7591    7.6783 N   0  0  0  0  0  0  0  0  0  0  0  0
   -3.4758   28.2612    7.1457 O   0  0  0  0  0  0  0  0  0  0  0  0
   -4.5318   28.5023    6.5444 C   0  0  0  0  0  0  0  0  0  0  0  0
   -4.8173   27.8649    5.3494 N   0  0  0  0  0  0  0  0  0  0  0  0
   -3.8670   26.8742    4.8333 C   0  0  0  0  0  0  0  0  0  0  0  0
   -4.5795   25.7781    4.0356 C   0  0  0  0  0  0  0  0  0  0  0  0
   -5.3402   26.2751    2.9256 O   0  0  0  0  0  0  0  0  0  0  0  0
   -5.8252   27.6123    3.1065 C   0  0  0  0  0  0  0  0  0  0  0  0
   -6.0536   27.9884    4.5743 C   0  0  0  0  0  0  0  0  0  0  0  0
   -4.0109   31.5140    6.6670 C   0  0  0  0  0  0  0  0  0  0  0  0
   -2.6639   32.1762    7.0334 C   0  0  0  0  0  0  0  0  0  0  0  0
   -1.5464   31.2379    7.4196 C   0  0  0  0  0  0  0  0  0  0  0  0
   -1.1320   31.1255    8.7576 C   0  0  0  0  0  0  0  0  0  0  0  0
   -0.0994   30.2527    9.1106 C   0  0  0  0  0  0  0  0  0  0  0  0
    0.5171   29.4851    8.1292 C   0  0  0  0  0  0  0  0  0  0  0  0
    1.5086   28.6518    8.4729 F   0  0  0  0  0  0  0  0  0  0  0  0
    0.1089   29.5797    6.8055 C   0  0  0  0  0  0  0  0  0  0  0  0
    0.7039   28.8382    5.8609 F   0  0  0  0  0  0  0  0  0  0  0  0
   -0.9195   30.4462    6.4448 C   0  0  0  0  0  0  0  0  0  0  0  0
  7  8  2  0  0  0
  8  1  1  0  0  0
  1  2  1  0  0  0
  2  3  1  0  0  0
  3  4  1  0  0  0
  4  5  1  0  0  0
  5  6  1  0  0  0
  6 15  1  0  0  0
 15 16  1  0  0  0
 16 17  1  0  0  0
 17 18  1  0  0  0
 18 19  2  0  0  0
 19 20  1  0  0  0
 20 21  1  0  0  0
 20 22  2  0  0  0
 22 23  1  0  0  0
 22 24  1  0  0  0
  8  9  1  0  0  0
  9 10  1  0  0  0
 10 11  1  0  0  0
 11 12  1  0  0  0
 12 13  1  0  0  0
 13 14  1  0  0  0
  6  1  1  0  0  0
 24 17  2  0  0  0
 14  9  1  0  0  0
M  END
> <minimizedAffinity>
-8.78523

$$$$
OCNT-2317327


 26 28  0  0  0  0  0  0  0  0999 V2000
   -4.3176   27.7266    5.5408 N   0  0  0  0  0  0  0  0  0  0  0  0
   -3.2477   26.7092    5.6095 C   0  0  0  0  0  0  0  0  0  0  0  0
   -2.7913   26.3316    4.2058 C   0  0  0  0  0  0  0  0  0  0  0  0
   -3.8762   26.3488    3.1299 C   0  0  0  0  0  0  0  0  0  0  0  0
   -5.0114   25.4868    3.4675 N   0  0  0  0  0  0  0  0  0  0  0  0
   -5.7696   25.7405    4.7153 C   0  0  0  0  0  0  0  0  0  0  0  0
   -5.6942   27.1808    5.2657 C   0  0  0  0  0  0  0  0  0  0  0  0
   -5.7317   24.8746    2.4358 C   0  0  0  0  0  0  0  0  0  0  0  0
   -5.7458   25.4523    1.1498 C   0  0  0  0  0  0  0  0  0  0  0  0
   -6.4594   24.8793    0.0914 C   0  0  0  0  0  0  0  0  0  0  0  0
   -7.1759   23.7126    0.3079 C   0  0  0  0  0  0  0  0  0  0  0  0
   -7.8604   23.1604   -0.7028 F   0  0  0  0  0  0  0  0  0  0  0  0
   -7.1825   23.1257    1.5639 C   0  0  0  0  0  0  0  0  0  0  0  0
   -7.8717   21.9954    1.7754 F   0  0  0  0  0  0  0  0  0  0  0  0
   -6.4723   23.6975    2.6195 C   0  0  0  0  0  0  0  0  0  0  0  0
   -4.2928   28.9546    6.7202 S   0  0  0  0  0  0  0  0  0  0  0  0
   -3.8702   30.1720    6.0610 O   0  0  0  0  0  0  0  0  0  0  0  0
   -5.5513   28.8888    7.4316 O   0  0  0  0  0  0  0  0  0  0  0  0
   -2.9767   28.4085    7.7939 C   0  0  0  0  0  0  0  0  0  0  0  0
   -1.8158   29.3982    7.7695 C   0  0  0  0  0  0  0  0  0  0  0  0
   -0.5055   28.7189    7.4379 C   0  0  0  0  0  0  0  0  0  0  0  0
    0.8102   29.2507    7.9542 C   0  0  0  0  0  0  0  0  0  0  0  0
    0.5035   29.3142    6.4832 C   0  0  0  0  0  0  0  0  0  0  0  0
   -1.7434   29.9805    9.0845 O   0  0  0  0  0  0  0  0  0  0  0  0
   -1.8070   32.1873    8.1798 C   0  0  0  0  0  0  0  0  0  0  0  0
   -2.4333   31.2263    9.1702 C   0  0  0  0  0  0  0  0  0  0  0  0
 25 26  1  0  0  0
 26 24  1  0  0  0
 24 20  1  0  0  0
 20 19  1  0  0  0
 19 16  1  0  0  0
 16 17  2  0  0  0
 16 18  2  0  0  0
 16  1  1  0  0  0
  1  2  1  0  0  0
  2  3  1  0  0  0
  3  4  1  0  0  0
  4  5  1  0  0  0
  5  8  1  0  0  0
  8  9  1  0  0  0
  9 10  2  0  0  0
 10 11  1  0  0  0
 11 12  1  0  0  0
 11 13  2  0  0  0
 13 14  1  0  0  0
 13 15  1  0  0  0
  5  6  1  0  0  0
  6  7  1  0  0  0
 20 21  1  0  0  0
 21 22  1  0  0  0
 22 23  1  0  0  0
  7  1  1  0  0  0
 23 21  1  0  0  0
 15  8  2  0  0  0
M  END
> <minimizedAffinity>
-8.95273

$$$$
OCNT-2317332


 26 28  0  0  0  0  0  0  0  0999 V2000
   -3.8298   31.4010    7.9810 N   0  0  0  0  0  0  0  0  0  0  0  0
   -4.7530   30.4184    7.6040 C   0  0  0  0  0  0  0  0  0  0  0  0
   -5.6463   30.0658    8.3797 O   0  0  0  0  0  0  0  0  0  0  0  0
   -4.3337   33.4210    9.3164 C   0  0  0  0  0  0  0  0  0  0  0  0
   -3.9319   31.9542    9.3312 C   0  0  0  0  0  0  0  0  0  0  0  0
   -2.6403   31.7557    7.2071 C   0  0  0  0  0  0  0  0  0  0  0  0
   -1.4599   30.8451    7.4524 C   0  0  0  0  0  0  0  0  0  0  0  0
   -0.9315   30.7158    8.7483 C   0  0  0  0  0  0  0  0  0  0  0  0
    0.1768   29.8991    8.9912 C   0  0  0  0  0  0  0  0  0  0  0  0
    0.7772   29.2110    7.9393 C   0  0  0  0  0  0  0  0  0  0  0  0
    0.2677   29.3478    6.6544 C   0  0  0  0  0  0  0  0  0  0  0  0
    0.8491   28.6912    5.6424 F   0  0  0  0  0  0  0  0  0  0  0  0
   -0.8353   30.1575    6.4013 C   0  0  0  0  0  0  0  0  0  0  0  0
   -4.6294   29.8376    6.1745 C   0  0  0  0  0  0  0  0  0  0  0  0
   -4.9101   28.3846    6.1161 N   0  0  0  0  0  0  0  0  0  0  0  0
   -3.7167   27.6241    5.6833 C   0  0  0  0  0  0  0  0  0  0  0  0
   -4.0631   26.3263    4.9219 C   0  0  0  0  0  0  0  0  0  0  0  0
   -4.7754   26.6024    3.6590 N   0  0  0  0  0  0  0  0  0  0  0  0
   -5.7289   27.7182    3.7986 C   0  0  0  0  0  0  0  0  0  0  0  0
   -6.0743   28.0942    5.2585 C   0  0  0  0  0  0  0  0  0  0  0  0
   -5.2915   25.3794    3.0195 C   0  0  0  0  0  0  0  0  0  0  0  0
   -5.7514   25.5322    1.5591 C   0  0  0  0  0  0  0  0  0  0  0  0
   -6.2242   24.1888    1.0159 C   0  0  0  0  0  0  0  0  0  0  0  0
   -5.1985   23.2045    1.1345 O   0  0  0  0  0  0  0  0  0  0  0  0
   -4.8357   22.9661    2.4936 C   0  0  0  0  0  0  0  0  0  0  0  0
   -4.2748   24.2298    3.1328 C   0  0  0  0  0  0  0  0  0  0  0  0
  4  5  1  0  0  0
  5  1  1  0  0  0
  1  6  1  0  0  0
  6  7  1  0  0  0
  7  8  2  0  0  0
  8  9  1  0  0  0
  9 10  2  0  0  0
 10 11  1  0  0  0
 11 12  1  0  0  0
 11 13  2  0  0  0
  1  2  1  0  0  0
  2  3  2  0  0  0
  2 14  1  0  0  0
 14 15  1  0  0  0
 15 16  1  0  0  0
 16 17  1  0  0  0
 17 18  1  0  0  0
 18 21  1  0  0  0
 21 22  1  0  0  0
 22 23  1  0  0  0
 23 24  1  0  0  0
 24 25  1  0  0  0
 25 26  1  0  0  0
 18 19  1  0  0  0
 19 20  1  0  0  0
 13  7  1  0  0  0
 20 15  1  0  0  0
 26 21  1  0  0  0
M  END
> <minimizedAffinity>
-9.10238

$$$$
OCNT-2317336


 31 33  0  0  0  0  0  0  0  0999 V2000
   -2.5378   28.8532    6.1929 N   0  0  0  0  0  0  0  0  0  0  0  0
   -2.6501   27.4939    6.0728 C   0  0  0  0  0  0  0  0  0  0  0  0
   -2.0261   26.6803    6.7398 O   0  0  0  0  0  0  0  0  0  0  0  0
   -3.5710   27.1613    5.1098 N   0  0  0  0  0  0  0  0  0  0  0  0
   -2.7342   29.3831    5.3569 H   0  0  0  0  0  0  0  0  0  0  0  0
   -4.2868   27.8583    4.9634 H   0  0  0  0  0  0  0  0  0  0  0  0
   -3.9443   25.7700    4.8736 C   0  0  0  0  0  0  0  0  0  0  0  0
   -3.2402   25.2493    3.6160 C   0  0  0  0  0  0  0  0  0  0  0  0
   -4.0210   24.0928    2.9989 C   0  0  0  0  0  0  0  0  0  0  0  0
   -5.3520   24.5117    2.5310 N   0  0  0  0  0  0  0  0  0  0  0  0
   -5.9505   25.5805    3.3481 C   0  0  0  0  0  0  0  0  0  0  0  0
   -5.4684   25.5894    4.7962 C   0  0  0  0  0  0  0  0  0  0  0  0
   -6.2726   23.3679    2.3712 C   0  0  0  0  0  0  0  0  0  0  0  0
   -5.9268   22.1188    3.2072 C   0  0  0  0  0  0  0  0  0  0  0  0
   -6.5576   22.1113    4.5807 C   0  0  0  0  0  0  0  0  0  0  0  0
   -5.7624   22.0859    5.7337 C   0  0  0  0  0  0  0  0  0  0  0  0
   -6.3487   22.0751    7.0006 C   0  0  0  0  0  0  0  0  0  0  0  0
   -7.7362   22.0881    7.1280 C   0  0  0  0  0  0  0  0  0  0  0  0
   -8.5384   22.1087    5.9889 C   0  0  0  0  0  0  0  0  0  0  0  0
   -7.9530   22.1183    4.7213 C   0  0  0  0  0  0  0  0  0  0  0  0
   -1.5429   29.4431    7.0612 C   0  0  0  0  0  0  0  0  0  0  0  0
   -3.5657   32.5161    8.1437 C   0  0  0  0  0  0  0  0  0  0  0  0
   -3.1911   32.6260    9.4815 C   0  0  0  0  0  0  0  0  0  0  0  0
   -2.2833   31.7139   10.0272 C   0  0  0  0  0  0  0  0  0  0  0  0
   -1.7549   30.6859    9.2430 C   0  0  0  0  0  0  0  0  0  0  0  0
   -2.1315   30.5459    7.9006 C   0  0  0  0  0  0  0  0  0  0  0  0
   -3.0254   31.4788    7.3673 C   0  0  0  0  0  0  0  0  0  0  0  0
   -3.3796   31.3875    6.0439 O   0  0  0  0  0  0  0  0  0  0  0  0
   -4.0166   32.1170    5.9074 H   0  0  0  0  0  0  0  0  0  0  0  0
   -4.9427   34.4533    8.2073 C   0  0  0  0  0  0  0  0  0  0  0  0
   -4.4325   33.3443    7.4755 O   0  0  0  0  0  0  0  0  0  0  0  0
 30 31  1  0  0  0
 31 22  1  0  0  0
 22 23  1  0  0  0
 23 24  2  0  0  0
 24 25  1  0  0  0
 25 26  2  0  0  0
 26 21  1  0  0  0
 21  1  1  0  0  0
  1  2  1  0  0  0
  2  3  2  0  0  0
  2  4  1  0  0  0
  4  7  1  0  0  0
  7  8  1  0  0  0
  8  9  1  0  0  0
  9 10  1  0  0  0
 10 13  1  0  0  0
 13 14  1  0  0  0
 14 15  1  0  0  0
 15 16  2  0  0  0
 16 17  1  0  0  0
 17 18  2  0  0  0
 18 19  1  0  0  0
 19 20  2  0  0  0
 10 11  1  0  0  0
 11 12  1  0  0  0
 26 27  1  0  0  0
 27 28  1  0  0  0
 27 22  2  0  0  0
 12  7  1  0  0  0
 20 15  1  0  0  0
  1  5  1  0  0  0
  4  6  1  0  0  0
 28 29  1  0  0  0
M  END
> <minimizedAffinity>
-9.56065

$$$$
OCNT-2317343


 31 33  0  0  0  0  0  0  0  0999 V2000
   -6.4317   29.7017    7.4265 C   0  0  0  0  0  0  0  0  0  0  0  0
   -6.6201   31.0763    8.0873 C   0  0  0  0  0  0  0  0  0  0  0  0
   -5.8404   31.1783    9.4012 C   0  0  0  0  0  0  0  0  0  0  0  0
   -4.4128   30.8527    9.2738 N   0  0  0  0  0  0  0  0  0  0  0  0
   -4.2358   29.5268    8.6729 C   0  0  0  0  0  0  0  0  0  0  0  0
   -4.9368   29.3661    7.3226 C   0  0  0  0  0  0  0  0  0  0  0  0
   -7.0869   29.6450    6.0424 C   0  0  0  0  0  0  0  0  0  0  0  0
   -6.1929   29.7770    3.3816 O   0  0  0  0  0  0  0  0  0  0  0  0
   -6.1405   28.7057    3.9740 C   0  0  0  0  0  0  0  0  0  0  0  0
   -6.6113   28.5217    5.2596 N   0  0  0  0  0  0  0  0  0  0  0  0
   -6.3032   27.6940    5.7545 H   0  0  0  0  0  0  0  0  0  0  0  0
   -5.5568   27.4418    3.3786 C   0  0  0  0  0  0  0  0  0  0  0  0
   -5.1568   26.4414    4.4593 C   0  0  0  0  0  0  0  0  0  0  0  0
   -3.6576   26.3760    4.6192 C   0  0  0  0  0  0  0  0  0  0  0  0
   -2.8377   26.1054    3.5149 C   0  0  0  0  0  0  0  0  0  0  0  0
   -1.4531   26.0227    3.6676 C   0  0  0  0  0  0  0  0  0  0  0  0
   -0.8863   26.2083    4.9223 C   0  0  0  0  0  0  0  0  0  0  0  0
    0.4705   26.1196    5.0259 O   0  0  0  0  0  0  0  0  0  0  0  0
   -1.6821   26.4742    6.0316 C   0  0  0  0  0  0  0  0  0  0  0  0
   -3.0682   26.5555    5.8789 C   0  0  0  0  0  0  0  0  0  0  0  0
    0.7216   26.2976    5.9469 H   0  0  0  0  0  0  0  0  0  0  0  0
   -3.6589   31.9352    8.6082 C   0  0  0  0  0  0  0  0  0  0  0  0
   -2.1352   32.0439    8.9170 C   0  0  0  0  0  0  0  0  0  0  0  0
   -1.9599   31.9420   10.3404 O   0  0  0  0  0  0  0  0  0  0  0  0
   -2.4287   32.6917   10.7415 H   0  0  0  0  0  0  0  0  0  0  0  0
   -1.1975   31.0337    8.2825 C   0  0  0  0  0  0  0  0  0  0  0  0
   -0.2601   30.3788    9.1038 C   0  0  0  0  0  0  0  0  0  0  0  0
    0.6362   29.4450    8.5794 C   0  0  0  0  0  0  0  0  0  0  0  0
    0.6122   29.1470    7.2208 C   0  0  0  0  0  0  0  0  0  0  0  0
   -0.3089   29.7807    6.3909 C   0  0  0  0  0  0  0  0  0  0  0  0
   -1.2069   30.7146    6.9175 C   0  0  0  0  0  0  0  0  0  0  0  0
  8  9  2  0  0  0
  9 12  1  0  0  0
 12 13  1  0  0  0
 13 14  1  0  0  0
 14 15  1  0  0  0
 15 16  2  0  0  0
 16 17  1  0  0  0
 17 18  1  0  0  0
 17 19  2  0  0  0
 19 20  1  0  0  0
  9 10  1  0  0  0
 10  7  1  0  0  0
  7  1  1  0  0  0
  1  2  1  0  0  0
  2  3  1  0  0  0
  3  4  1  0  0  0
  4 22  1  0  0  0
 22 23  1  0  0  0
 23 24  1  0  0  0
 23 26  1  0  0  0
 26 27  2  0  0  0
 27 28  1  0  0  0
 28 29  2  0  0  0
 29 30  1  0  0  0
 30 31  2  0  0  0
  4  5  1  0  0  0
  5  6  1  0  0  0
 20 14  2  0  0  0
  6  1  1  0  0  0
 31 26  1  0  0  0
 18 21  1  0  0  0
 10 11  1  0  0  0
 24 25  1  0  0  0
M  END
> <minimizedAffinity>
-9.79440

$$$$
OCNT-2317345


 25 27  0  0  0  0  0  0  0  0999 V2000
   -6.3074   29.5853    5.1102 C   0  0  0  0  0  0  0  0  0  0  0  0
   -6.1611   28.2096    4.5178 C   0  0  0  0  0  0  0  0  0  0  0  0
   -5.8369   28.0488    3.1663 C   0  0  0  0  0  0  0  0  0  0  0  0
   -5.6773   26.7717    2.6130 C   0  0  0  0  0  0  0  0  0  0  0  0
   -5.8319   25.6224    3.4056 C   0  0  0  0  0  0  0  0  0  0  0  0
   -6.1467   25.7942    4.7586 C   0  0  0  0  0  0  0  0  0  0  0  0
   -6.3042   24.7571    5.5908 F   0  0  0  0  0  0  0  0  0  0  0  0
   -6.3070   27.0676    5.3101 C   0  0  0  0  0  0  0  0  0  0  0  0
   -5.6659   24.3268    2.8332 N   0  0  0  0  0  0  0  0  0  0  0  0
   -6.4679   23.7338    1.8757 C   0  0  0  0  0  0  0  0  0  0  0  0
   -5.9268   22.4958    1.6250 C   0  0  0  0  0  0  0  0  0  0  0  0
   -4.8187   22.2920    2.3887 N   0  0  0  0  0  0  0  0  0  0  0  0
   -4.6861   23.3918    3.0994 C   0  0  0  0  0  0  0  0  0  0  0  0
   -3.0976   30.7103    6.3295 N   0  0  0  0  0  0  0  0  0  0  0  0
   -4.3260   30.0996    6.4241 C   0  0  0  0  0  0  0  0  0  0  0  0
   -4.8157   29.5299    7.3893 O   0  0  0  0  0  0  0  0  0  0  0  0
   -5.0172   30.2263    5.2275 N   0  0  0  0  0  0  0  0  0  0  0  0
   -2.9642   31.3594    5.5738 H   0  0  0  0  0  0  0  0  0  0  0  0
   -4.4330   30.1808    4.4066 H   0  0  0  0  0  0  0  0  0  0  0  0
    0.7540   29.4147    8.8217 C   0  0  0  0  0  0  0  0  0  0  0  0
   -0.4141   30.1739    8.4486 N   0  0  0  0  0  0  0  0  0  0  0  0
   -0.9302   31.2606    9.0870 C   0  0  0  0  0  0  0  0  0  0  0  0
   -2.0402   31.6211    8.3596 C   0  0  0  0  0  0  0  0  0  0  0  0
   -2.1172   30.6851    7.2973 C   0  0  0  0  0  0  0  0  0  0  0  0
   -1.1058   29.8198    7.3566 N   0  0  0  0  0  0  0  0  0  0  0  0
 20 21  1  0  0  0
 21 22  1  0  0  0
 22 23  2  0  0  0
 23 24  1  0  0  0
 24 14  1  0  0  0
 14 15  1  0  0  0
 15 16  2  0  0  0
 15 17  1  0  0  0
 17  1  1  0  0  0
  1  2  1  0  0  0
  2  3  1  0  0  0
  3  4  2  0  0  0
  4  5  1  0  0  0
  5  9  1  0  0  0
  9 10  1  0  0  0
 10 11  2  0  0  0
 11 12  1  0  0  0
 12 13  2  0  0  0
  5  6  2  0  0  0
  6  7  1  0  0  0
  6  8  1  0  0  0
 24 25  2  0  0  0
 25 21  1  0  0  0
  8  2  2  0  0  0
 13  9  1  0  0  0
 14 18  1  0  0  0
 17 19  1  0  0  0
M  END
> <minimizedAffinity>
-8.97894

$$$$
OCNT-2317346


 27 30  0  0  0  0  0  0  0  0999 V2000
   -5.8395   28.5364    6.6300 C   0  0  0  0  0  0  0  0  0  0  0  0
   -7.2853   29.0018    6.8733 C   0  0  0  0  0  0  0  0  0  0  0  0
   -4.8484   29.6449    6.7560 N   0  0  0  0  0  0  0  0  0  0  0  0
   -5.2529   30.7102    7.6704 C   0  0  0  0  0  0  0  0  0  0  0  0
   -4.3324   31.9306    7.5210 C   0  0  0  0  0  0  0  0  0  0  0  0
   -2.8478   31.5834    7.2827 C   0  0  0  0  0  0  0  0  0  0  0  0
   -1.9542   32.6476    7.9259 C   0  0  0  0  0  0  0  0  0  0  0  0
   -2.5573   30.1575    7.7890 C   0  0  0  0  0  0  0  0  0  0  0  0
   -3.4992   29.1324    7.1035 C   0  0  0  0  0  0  0  0  0  0  0  0
   -1.1649   29.7504    7.6593 N   0  0  0  0  0  0  0  0  0  0  0  0
   -0.3240   29.3466    8.6597 C   0  0  0  0  0  0  0  0  0  0  0  0
    0.8720   29.0817    8.0349 C   0  0  0  0  0  0  0  0  0  0  0  0
    0.7784   29.3126    6.6877 N   0  0  0  0  0  0  0  0  0  0  0  0
   -0.4567   29.7137    6.4905 C   0  0  0  0  0  0  0  0  0  0  0  0
   -5.7608   26.6569    3.5626 C   0  0  0  0  0  0  0  0  0  0  0  0
   -5.8397   27.9026    3.0643 N   0  0  0  0  0  0  0  0  0  0  0  0
   -5.8705   28.7133    4.1952 O   0  0  0  0  0  0  0  0  0  0  0  0
   -5.8052   27.8798    5.2728 C   0  0  0  0  0  0  0  0  0  0  0  0
   -5.7322   26.6100    4.9401 N   0  0  0  0  0  0  0  0  0  0  0  0
   -5.0288   21.7175    3.1964 C   0  0  0  0  0  0  0  0  0  0  0  0
   -5.3731   23.0328    2.5674 C   0  0  0  0  0  0  0  0  0  0  0  0
   -5.4188   24.2073    3.3345 C   0  0  0  0  0  0  0  0  0  0  0  0
   -5.7108   25.4498    2.7431 C   0  0  0  0  0  0  0  0  0  0  0  0
   -5.9481   25.5025    1.3604 C   0  0  0  0  0  0  0  0  0  0  0  0
   -5.8899   24.3407    0.5873 C   0  0  0  0  0  0  0  0  0  0  0  0
   -5.6002   23.1224    1.1931 C   0  0  0  0  0  0  0  0  0  0  0  0
   -5.5394   22.0205    0.4324 F   0  0  0  0  0  0  0  0  0  0  0  0
 20 21  1  0  0  0
 21 22  1  0  0  0
 22 23  2  0  0  0
 23 15  1  0  0  0
 15 16  2  0  0  0
 16 17  1  0  0  0
 17 18  1  0  0  0
 18  1  1  0  0  0
  1  2  1  0  0  0
  1  3  1  0  0  0
  3  4  1  0  0  0
  4  5  1  0  0  0
  5  6  1  0  0  0
  6  7  1  0  0  0
  6  8  1  0  0  0
  8 10  1  0  0  0
 10 11  1  0  0  0
 11 12  2  0  0  0
 12 13  1  0  0  0
 13 14  2  0  0  0
  8  9  1  0  0  0
 18 19  2  0  0  0
 23 24  1  0  0  0
 24 25  2  0  0  0
 25 26  1  0  0  0
 26 27  1  0  0  0
 26 21  2  0  0  0
 19 15  1  0  0  0
  9  3  1  0  0  0
 14 10  1  0  0  0
M  END
> <minimizedAffinity>
-10.05504

$$$$
OCNT-2317347


 29 31  0  0  0  0  0  0  0  0999 V2000
   -4.5488   26.0548    4.5136 N   0  0  0  0  0  0  0  0  0  0  0  0
   -3.2301   26.3398    4.7957 C   0  0  0  0  0  0  0  0  0  0  0  0
   -2.2545   25.9965    4.1419 O   0  0  0  0  0  0  0  0  0  0  0  0
   -3.1299   27.0991    5.9426 N   0  0  0  0  0  0  0  0  0  0  0  0
   -5.2251   26.4532    5.1480 H   0  0  0  0  0  0  0  0  0  0  0  0
   -3.9350   27.6731    6.1660 H   0  0  0  0  0  0  0  0  0  0  0  0
   -5.6963   23.2390    2.3461 C   0  0  0  0  0  0  0  0  0  0  0  0
   -6.0701   23.9366    1.1965 C   0  0  0  0  0  0  0  0  0  0  0  0
   -5.9428   25.3226    1.1719 C   0  0  0  0  0  0  0  0  0  0  0  0
   -5.4397   25.9981    2.2876 C   0  0  0  0  0  0  0  0  0  0  0  0
   -5.0570   25.2980    3.4406 C   0  0  0  0  0  0  0  0  0  0  0  0
   -5.2012   23.9107    3.4700 C   0  0  0  0  0  0  0  0  0  0  0  0
   -7.4468   21.1942    3.1336 C   0  0  0  0  0  0  0  0  0  0  0  0
   -5.8562   21.4712    2.3982 S   0  0  0  0  0  0  0  0  0  0  0  0
   -5.8904   21.0054    1.0262 O   0  0  0  0  0  0  0  0  0  0  0  0
   -4.8612   20.9703    3.3295 O   0  0  0  0  0  0  0  0  0  0  0  0
   -1.8598   27.6273    6.4057 C   0  0  0  0  0  0  0  0  0  0  0  0
   -1.8277   27.9651    7.9072 C   0  0  0  0  0  0  0  0  0  0  0  0
   -0.5791   28.7249    8.3525 C   0  0  0  0  0  0  0  0  0  0  0  0
   -0.9234   30.2063    8.1771 C   0  0  0  0  0  0  0  0  0  0  0  0
   -2.3882   30.2443    8.0515 N   0  0  0  0  0  0  0  0  0  0  0  0
   -2.9549   28.9197    8.3143 C   0  0  0  0  0  0  0  0  0  0  0  0
   -3.1018   31.4186    8.1811 C   0  0  0  0  0  0  0  0  0  0  0  0
   -3.8373   31.9524    7.1063 C   0  0  0  0  0  0  0  0  0  0  0  0
   -4.5861   33.1284    7.2313 C   0  0  0  0  0  0  0  0  0  0  0  0
   -4.6178   33.7903    8.4470 C   0  0  0  0  0  0  0  0  0  0  0  0
   -5.3345   34.9142    8.5731 F   0  0  0  0  0  0  0  0  0  0  0  0
   -3.9185   33.2952    9.5346 C   0  0  0  0  0  0  0  0  0  0  0  0
   -3.1725   32.1180    9.3988 C   0  0  0  0  0  0  0  0  0  0  0  0
 13 14  1  0  0  0
 14 15  2  0  0  0
 14 16  2  0  0  0
 14  7  1  0  0  0
  7  8  2  0  0  0
  8  9  1  0  0  0
  9 10  2  0  0  0
 10 11  1  0  0  0
 11  1  1  0  0  0
  1  2  1  0  0  0
  2  3  2  0  0  0
  2  4  1  0  0  0
  4 17  1  0  0  0
 17 18  1  0  0  0
 18 19  1  0  0  0
 19 20  1  0  0  0
 20 21  1  0  0  0
 21 23  1  0  0  0
 23 24  1  0  0  0
 24 25  2  0  0  0
 25 26  1  0  0  0
 26 27  1  0  0  0
 26 28  2  0  0  0
 28 29  1  0  0  0
 21 22  1  0  0  0
 11 12  2  0  0  0
 12  7  1  0  0  0
 22 18  1  0  0  0
 29 23  2  0  0  0
  1  5  1  0  0  0
  4  6  1  0  0  0
M  END
> <minimizedAffinity>
-9.85804

$$$$
OCNT-2317349


 24 27  0  0  0  0  0  0  0  0999 V2000
   -1.7248   27.0297    5.8600 C   0  0  0  0  0  0  0  0  0  0  0  0
   -0.7461   26.2814    5.8784 O   0  0  0  0  0  0  0  0  0  0  0  0
   -2.7592   26.8219    4.9455 N   0  0  0  0  0  0  0  0  0  0  0  0
   -2.5994   25.7754    3.9392 C   0  0  0  0  0  0  0  0  0  0  0  0
   -3.5288   25.9648    2.7244 C   0  0  0  0  0  0  0  0  0  0  0  0
   -4.9544   26.1851    3.0396 N   0  0  0  0  0  0  0  0  0  0  0  0
   -5.1803   26.4903    4.4620 C   0  0  0  0  0  0  0  0  0  0  0  0
   -4.0976   27.4142    5.0495 C   0  0  0  0  0  0  0  0  0  0  0  0
    0.4230   29.2061    6.4691 C   0  0  0  0  0  0  0  0  0  0  0  0
   -0.9338   29.1164    7.0955 C   0  0  0  0  0  0  0  0  0  0  0  0
   -1.8563   28.1198    6.8161 C   0  0  0  0  0  0  0  0  0  0  0  0
   -3.3299   28.3517    7.6416 S   0  0  0  0  0  0  0  0  0  0  0  0
   -2.7529   29.7506    8.4518 C   0  0  0  0  0  0  0  0  0  0  0  0
   -3.4580   30.5329    9.3884 C   0  0  0  0  0  0  0  0  0  0  0  0
   -2.8377   31.6549    9.9398 C   0  0  0  0  0  0  0  0  0  0  0  0
   -1.5467   31.9970    9.5677 C   0  0  0  0  0  0  0  0  0  0  0  0
   -0.8518   31.2176    8.6375 C   0  0  0  0  0  0  0  0  0  0  0  0
   -1.4484   30.0652    8.0627 C   0  0  0  0  0  0  0  0  0  0  0  0
   -5.8397   25.1037    2.5718 C   0  0  0  0  0  0  0  0  0  0  0  0
   -5.4616   24.5368    1.1789 C   0  0  0  0  0  0  0  0  0  0  0  0
   -6.1609   23.2118    0.8931 C   0  0  0  0  0  0  0  0  0  0  0  0
   -7.4269   23.6425    0.1965 C   0  0  0  0  0  0  0  0  0  0  0  0
   -6.9496   24.8288   -0.6088 C   0  0  0  0  0  0  0  0  0  0  0  0
   -5.8987   25.4444    0.1447 O   0  0  0  0  0  0  0  0  0  0  0  0
  9 10  1  0  0  0
 10 11  2  0  0  0
 11  1  1  0  0  0
  1  2  2  0  0  0
  1  3  1  0  0  0
  3  4  1  0  0  0
  4  5  1  0  0  0
  5  6  1  0  0  0
  6 19  1  0  0  0
 19 20  1  0  0  0
 20 21  1  0  0  0
 21 22  1  0  0  0
 22 23  1  0  0  0
 23 24  1  0  0  0
  6  7  1  0  0  0
  7  8  1  0  0  0
 11 12  1  0  0  0
 12 13  1  0  0  0
 13 14  2  0  0  0
 14 15  1  0  0  0
 15 16  2  0  0  0
 16 17  1  0  0  0
 17 18  2  0  0  0
 18 10  1  0  0  0
  8  3  1  0  0  0
 18 13  1  0  0  0
 24 20  1  0  0  0
M  END
> <minimizedAffinity>
-9.86400

$$$$
OCNT-2317353


 26 28  0  0  0  0  0  0  0  0999 V2000
   -4.8123   28.1288    6.4371 N   0  0  0  0  0  0  0  0  0  0  0  0
   -5.5946   28.4520    5.3530 C   0  0  0  0  0  0  0  0  0  0  0  0
   -5.7262   29.5772    4.8784 O   0  0  0  0  0  0  0  0  0  0  0  0
   -4.4694   27.1805    6.5185 H   0  0  0  0  0  0  0  0  0  0  0  0
   -4.5370   30.0215    8.0525 N   0  0  0  0  0  0  0  0  0  0  0  0
   -3.4074   30.6227    8.5905 C   0  0  0  0  0  0  0  0  0  0  0  0
   -3.2075   31.7243    9.4363 C   0  0  0  0  0  0  0  0  0  0  0  0
   -1.8903   32.0243    9.8047 C   0  0  0  0  0  0  0  0  0  0  0  0
   -0.8196   31.2534    9.3535 C   0  0  0  0  0  0  0  0  0  0  0  0
   -1.0374   30.1557    8.5142 C   0  0  0  0  0  0  0  0  0  0  0  0
   -2.3511   29.8454    8.1312 C   0  0  0  0  0  0  0  0  0  0  0  0
   -2.8016   28.8333    7.3318 N   0  0  0  0  0  0  0  0  0  0  0  0
   -4.1040   28.9950    7.2331 C   0  0  0  0  0  0  0  0  0  0  0  0
   -5.8874   30.3607    8.4638 C   0  0  0  0  0  0  0  0  0  0  0  0
   -6.0559   28.6122   10.3024 C   0  0  0  0  0  0  0  0  0  0  0  0
   -6.2084   30.0821    9.9347 C   0  0  0  0  0  0  0  0  0  0  0  0
   -6.2278   27.2186    4.6748 C   0  0  0  0  0  0  0  0  0  0  0  0
   -5.7137   26.8872    3.2795 C   0  0  0  0  0  0  0  0  0  0  0  0
   -5.8574   25.3702    3.1496 C   0  0  0  0  0  0  0  0  0  0  0  0
   -6.3011   24.8841    4.5257 C   0  0  0  0  0  0  0  0  0  0  0  0
   -5.8766   25.9880    5.3994 N   0  0  0  0  0  0  0  0  0  0  0  0
   -6.3168   25.9497    6.3189 H   0  0  0  0  0  0  0  0  0  0  0  0
   -5.6788   23.5586    4.9550 C   0  0  0  0  0  0  0  0  0  0  0  0
   -5.3981   22.6074    4.2423 O   0  0  0  0  0  0  0  0  0  0  0  0
   -5.3427   23.5337    6.2627 O   0  0  0  0  0  0  0  0  0  0  0  0
   -4.9399   22.6464    6.3739 H   0  0  0  0  0  0  0  0  0  0  0  0
 15 16  1  0  0  0
 16 14  1  0  0  0
 14  5  1  0  0  0
  5  6  1  0  0  0
  6  7  2  0  0  0
  7  8  1  0  0  0
  8  9  2  0  0  0
  9 10  1  0  0  0
 10 11  2  0  0  0
 11 12  1  0  0  0
 12 13  2  0  0  0
 13  1  1  0  0  0
  1  2  1  0  0  0
  2  3  2  0  0  0
  2 17  1  0  0  0
 17 18  1  0  0  0
 18 19  1  0  0  0
 19 20  1  0  0  0
 20 23  1  0  0  0
 23 24  2  0  0  0
 23 25  1  0  0  0
 20 21  1  0  0  0
 13  5  1  0  0  0
 21 17  1  0  0  0
 11  6  1  0  0  0
  1  4  1  0  0  0
 25 26  1  0  0  0
 21 22  1  0  0  0
M  END
> <minimizedAffinity>
-8.50199

$$$$
OCNT-2317361


 23 27  0  0  0  0  0  0  0  0999 V2000
   -6.7125   28.5553    5.6766 C   0  0  0  0  0  0  0  0  0  0  0  0
   -5.2959   28.0694    5.8005 C   0  0  0  0  0  0  0  0  0  0  0  0
   -4.4000   28.6668    6.6967 C   0  0  0  0  0  0  0  0  0  0  0  0
   -3.0972   28.3435    6.6906 N   0  0  0  0  0  0  0  0  0  0  0  0
   -2.7113   27.4001    5.8310 C   0  0  0  0  0  0  0  0  0  0  0  0
   -3.4982   26.7204    4.9961 N   0  0  0  0  0  0  0  0  0  0  0  0
   -4.8036   27.0359    4.9931 C   0  0  0  0  0  0  0  0  0  0  0  0
   -4.8319   29.6297    7.6158 N   0  0  0  0  0  0  0  0  0  0  0  0
   -4.4095   29.4141    9.0085 C   0  0  0  0  0  0  0  0  0  0  0  0
   -3.9347   30.7826    9.5027 C   0  0  0  0  0  0  0  0  0  0  0  0
   -4.6882   31.7606    8.6084 C   0  0  0  0  0  0  0  0  0  0  0  0
   -4.6125   31.0375    7.2568 C   0  0  0  0  0  0  0  0  0  0  0  0
   -4.1873   33.1741    8.5426 C   0  0  0  0  0  0  0  0  0  0  0  0
   -4.7008   34.2880    9.4206 C   0  0  0  0  0  0  0  0  0  0  0  0
   -5.0195   34.2829    7.9491 C   0  0  0  0  0  0  0  0  0  0  0  0
   -5.6463   26.3150    4.1408 N   0  0  0  0  0  0  0  0  0  0  0  0
   -5.8279   24.8913    4.4608 C   0  0  0  0  0  0  0  0  0  0  0  0
   -5.7798   24.1654    3.1156 C   0  0  0  0  0  0  0  0  0  0  0  0
   -6.1447   25.2498    2.1050 C   0  0  0  0  0  0  0  0  0  0  0  0
   -5.4147   26.4603    2.6959 C   0  0  0  0  0  0  0  0  0  0  0  0
   -5.8212   24.8465    0.6958 C   0  0  0  0  0  0  0  0  0  0  0  0
   -6.7197   23.9345   -0.1012 C   0  0  0  0  0  0  0  0  0  0  0  0
   -6.5582   25.3747   -0.5102 C   0  0  0  0  0  0  0  0  0  0  0  0
  1  2  1  0  0  0
  2  3  2  0  0  0
  3  8  1  0  0  0
  8  9  1  0  0  0
  9 10  1  0  0  0
 10 11  1  0  0  0
 11 13  1  0  0  0
 13 14  1  0  0  0
 14 15  1  0  0  0
 11 12  1  0  0  0
  3  4  1  0  0  0
  4  5  2  0  0  0
  5  6  1  0  0  0
  6  7  2  0  0  0
  7 16  1  0  0  0
 16 17  1  0  0  0
 17 18  1  0  0  0
 18 19  1  0  0  0
 19 21  1  0  0  0
 21 22  1  0  0  0
 22 23  1  0  0  0
 19 20  1  0  0  0
  7  2  1  0  0  0
 20 16  1  0  0  0
 12  8  1  0  0  0
 23 21  1  0  0  0
 15 13  1  0  0  0
M  END
> <minimizedAffinity>
-9.05135

$$$$
OCNT-2317363


 22 24  0  0  0  0  0  0  0  0999 V2000
   -3.2956   30.7669    7.8664 C   0  0  0  0  0  0  0  0  0  0  0  0
   -3.3771   32.2511    8.2563 C   0  0  0  0  0  0  0  0  0  0  0  0
   -4.6787   32.5896    8.9851 C   0  0  0  0  0  0  0  0  0  0  0  0
   -5.8195   31.6695    8.5545 C   0  0  0  0  0  0  0  0  0  0  0  0
   -5.5569   30.2584    8.8808 N   0  0  0  0  0  0  0  0  0  0  0  0
   -4.1233   29.9010    8.8282 C   0  0  0  0  0  0  0  0  0  0  0  0
    1.2914   29.1409    8.7409 C   0  0  0  0  0  0  0  0  0  0  0  0
    0.0679   29.6177    8.0710 C   0  0  0  0  0  0  0  0  0  0  0  0
   -0.0073   29.7748    6.7435 N   0  0  0  0  0  0  0  0  0  0  0  0
   -1.3119   30.2305    6.5499 O   0  0  0  0  0  0  0  0  0  0  0  0
   -1.8844   30.3016    7.7883 C   0  0  0  0  0  0  0  0  0  0  0  0
   -1.0761   29.9342    8.7575 N   0  0  0  0  0  0  0  0  0  0  0  0
   -6.3768   29.3335    8.0764 C   0  0  0  0  0  0  0  0  0  0  0  0
   -6.8765   29.9440    6.7548 C   0  0  0  0  0  0  0  0  0  0  0  0
   -6.5413   29.0647    5.5717 C   0  0  0  0  0  0  0  0  0  0  0  0
   -6.2932   29.6315    4.3107 C   0  0  0  0  0  0  0  0  0  0  0  0
   -5.9670   28.8197    3.2212 C   0  0  0  0  0  0  0  0  0  0  0  0
   -5.8845   27.4420    3.3910 C   0  0  0  0  0  0  0  0  0  0  0  0
   -5.5703   26.6686    2.3426 F   0  0  0  0  0  0  0  0  0  0  0  0
   -6.1229   26.8726    4.6350 C   0  0  0  0  0  0  0  0  0  0  0  0
   -6.0390   25.5448    4.7970 F   0  0  0  0  0  0  0  0  0  0  0  0
   -6.4484   27.6734    5.7264 C   0  0  0  0  0  0  0  0  0  0  0  0
  7  8  1  0  0  0
  8  9  2  0  0  0
  9 10  1  0  0  0
 10 11  1  0  0  0
 11  1  1  0  0  0
  1  2  1  0  0  0
  2  3  1  0  0  0
  3  4  1  0  0  0
  4  5  1  0  0  0
  5 13  1  0  0  0
 13 14  1  0  0  0
 14 15  1  0  0  0
 15 16  1  0  0  0
 16 17  2  0  0  0
 17 18  1  0  0  0
 18 19  1  0  0  0
 18 20  2  0  0  0
 20 21  1  0  0  0
 20 22  1  0  0  0
  5  6  1  0  0  0
 11 12  2  0  0  0
 12  8  1  0  0  0
  6  1  1  0  0  0
 22 15  2  0  0  0
M  END
> <minimizedAffinity>
-8.85388

$$$$
OCNT-2317371


 27 29  0  0  0  0  0  0  0  0999 V2000
   -6.2509   28.8630    4.6003 C   0  0  0  0  0  0  0  0  0  0  0  0
   -6.3143   27.8394    5.7513 C   0  0  0  0  0  0  0  0  0  0  0  0
   -6.4405   26.4079    5.2326 C   0  0  0  0  0  0  0  0  0  0  0  0
   -5.2651   26.0453    4.4435 N   0  0  0  0  0  0  0  0  0  0  0  0
   -4.8031   27.0779    3.5110 C   0  0  0  0  0  0  0  0  0  0  0  0
   -5.8185   28.1969    3.2816 C   0  0  0  0  0  0  0  0  0  0  0  0
   -5.3305   30.0413    4.9503 C   0  0  0  0  0  0  0  0  0  0  0  0
   -3.5401   30.6235    6.5496 C   0  0  0  0  0  0  0  0  0  0  0  0
   -3.8090   31.8195    6.4601 O   0  0  0  0  0  0  0  0  0  0  0  0
   -4.2973   29.6686    5.8958 N   0  0  0  0  0  0  0  0  0  0  0  0
   -3.9148   28.7324    5.8602 H   0  0  0  0  0  0  0  0  0  0  0  0
   -1.6667   32.2677    8.5291 C   0  0  0  0  0  0  0  0  0  0  0  0
   -1.5898   30.8189    8.1928 C   0  0  0  0  0  0  0  0  0  0  0  0
   -2.4182   30.1181    7.3245 C   0  0  0  0  0  0  0  0  0  0  0  0
   -1.9238   28.4697    7.2732 S   0  0  0  0  0  0  0  0  0  0  0  0
   -0.6751   28.8163    8.3882 C   0  0  0  0  0  0  0  0  0  0  0  0
   -0.5935   30.0615    8.7957 N   0  0  0  0  0  0  0  0  0  0  0  0
   -5.3410   24.6952    3.8510 C   0  0  0  0  0  0  0  0  0  0  0  0
   -4.6135   24.4356    2.4997 C   0  0  0  0  0  0  0  0  0  0  0  0
   -3.7112   23.3292    2.5923 O   0  0  0  0  0  0  0  0  0  0  0  0
   -3.5813   22.9921    1.6897 H   0  0  0  0  0  0  0  0  0  0  0  0
   -5.6013   24.1699    1.3777 C   0  0  0  0  0  0  0  0  0  0  0  0
   -6.0603   25.2148    0.5587 C   0  0  0  0  0  0  0  0  0  0  0  0
   -6.9633   24.9636   -0.4748 C   0  0  0  0  0  0  0  0  0  0  0  0
   -7.4181   23.6666   -0.7023 C   0  0  0  0  0  0  0  0  0  0  0  0
   -6.9714   22.6204    0.1028 C   0  0  0  0  0  0  0  0  0  0  0  0
   -6.0674   22.8690    1.1373 C   0  0  0  0  0  0  0  0  0  0  0  0
 12 13  1  0  0  0
 13 14  2  0  0  0
 14  8  1  0  0  0
  8  9  2  0  0  0
  8 10  1  0  0  0
 10  7  1  0  0  0
  7  1  1  0  0  0
  1  2  1  0  0  0
  2  3  1  0  0  0
  3  4  1  0  0  0
  4 18  1  0  0  0
 18 19  1  0  0  0
 19 20  1  0  0  0
 19 22  1  0  0  0
 22 23  2  0  0  0
 23 24  1  0  0  0
 24 25  2  0  0  0
 25 26  1  0  0  0
 26 27  2  0  0  0
  4  5  1  0  0  0
  5  6  1  0  0  0
 14 15  1  0  0  0
 15 16  1  0  0  0
 16 17  2  0  0  0
 17 13  1  0  0  0
  6  1  1  0  0  0
 27 22  1  0  0  0
 10 11  1  0  0  0
 20 21  1  0  0  0
M  END
> <minimizedAffinity>
-9.41805

$$$$
OCNT-2317383


 23 25  0  0  0  0  0  0  0  0999 V2000
   -4.9683   31.0055    6.4295 N   0  0  0  0  0  0  0  0  0  0  0  0
   -5.5932   31.4453    5.7529 H   0  0  0  0  0  0  0  0  0  0  0  0
   -4.9864   29.5450    6.1947 C   0  0  0  0  0  0  0  0  0  0  0  0
   -7.2705   28.4641    6.6414 C   0  0  0  0  0  0  0  0  0  0  0  0
   -6.2981   28.9761    5.5759 C   0  0  0  0  0  0  0  0  0  0  0  0
   -6.9504   30.0695    4.9014 O   0  0  0  0  0  0  0  0  0  0  0  0
   -7.5131   29.6575    4.2189 H   0  0  0  0  0  0  0  0  0  0  0  0
   -6.0448   27.9201    4.5362 C   0  0  0  0  0  0  0  0  0  0  0  0
   -5.8500   27.9320    3.1691 C   0  0  0  0  0  0  0  0  0  0  0  0
   -5.6588   26.5864    2.7734 C   0  0  0  0  0  0  0  0  0  0  0  0
   -5.7369   25.8337    3.9217 C   0  0  0  0  0  0  0  0  0  0  0  0
   -5.9643   26.6297    4.9974 O   0  0  0  0  0  0  0  0  0  0  0  0
   -3.6272   31.5760    6.2552 C   0  0  0  0  0  0  0  0  0  0  0  0
   -2.7837   31.4968    7.5035 C   0  0  0  0  0  0  0  0  0  0  0  0
   -3.2209   32.2015    8.6289 C   0  0  0  0  0  0  0  0  0  0  0  0
   -2.5855   32.2284    9.8182 N   0  0  0  0  0  0  0  0  0  0  0  0
   -1.4522   31.5000    9.9026 C   0  0  0  0  0  0  0  0  0  0  0  0
   -0.9075   30.7486    8.8593 C   0  0  0  0  0  0  0  0  0  0  0  0
    0.2770   30.0078    9.0339 C   0  0  0  0  0  0  0  0  0  0  0  0
    0.8019   29.2484    7.9906 C   0  0  0  0  0  0  0  0  0  0  0  0
    0.1532   29.2264    6.7631 C   0  0  0  0  0  0  0  0  0  0  0  0
   -1.0207   29.9650    6.5774 C   0  0  0  0  0  0  0  0  0  0  0  0
   -1.5857   30.7415    7.6182 C   0  0  0  0  0  0  0  0  0  0  0  0
  4  5  1  0  0  0
  5  6  1  0  0  0
  5  3  1  0  0  0
  3  1  1  0  0  0
  1 13  1  0  0  0
 13 14  1  0  0  0
 14 15  1  0  0  0
 15 16  2  0  0  0
 16 17  1  0  0  0
 17 18  2  0  0  0
 18 19  1  0  0  0
 19 20  2  0  0  0
 20 21  1  0  0  0
 21 22  2  0  0  0
 22 23  1  0  0  0
  5  8  1  0  0  0
  8  9  2  0  0  0
  9 10  1  0  0  0
 10 11  2  0  0  0
 11 12  1  0  0  0
 23 14  2  0  0  0
 12  8  1  0  0  0
 23 18  1  0  0  0
  6  7  1  0  0  0
  1  2  1  0  0  0
M  END
> <minimizedAffinity>
-8.64440

$$$$
OCNT-2317404


 26 29  0  0  0  0  0  0  0  0999 V2000
   -5.8186   26.6798    3.8911 C   0  0  0  0  0  0  0  0  0  0  0  0
   -6.0099   27.0631    5.2203 C   0  0  0  0  0  0  0  0  0  0  0  0
   -6.2130   28.4153    5.5526 C   0  0  0  0  0  0  0  0  0  0  0  0
   -6.2350   29.3746    4.5314 C   0  0  0  0  0  0  0  0  0  0  0  0
   -6.0466   28.9948    3.2046 C   0  0  0  0  0  0  0  0  0  0  0  0
   -5.8391   27.6524    2.8891 C   0  0  0  0  0  0  0  0  0  0  0  0
   -5.6112   25.4050    3.4413 O   0  0  0  0  0  0  0  0  0  0  0  0
   -4.9266   25.2573    2.1948 C   0  0  0  0  0  0  0  0  0  0  0  0
   -7.2322   22.9589   -0.5564 C   0  0  0  0  0  0  0  0  0  0  0  0
   -7.2034   24.3396   -0.7034 C   0  0  0  0  0  0  0  0  0  0  0  0
   -6.4623   25.1055    0.1923 C   0  0  0  0  0  0  0  0  0  0  0  0
   -5.7732   24.4652    1.2218 C   0  0  0  0  0  0  0  0  0  0  0  0
   -5.7814   23.1141    1.3667 N   0  0  0  0  0  0  0  0  0  0  0  0
   -6.5119   22.3977    0.4836 C   0  0  0  0  0  0  0  0  0  0  0  0
   -6.4554   28.8241    6.9886 C   0  0  0  0  0  0  0  0  0  0  0  0
   -5.2310   28.6948    7.7634 N   0  0  0  0  0  0  0  0  0  0  0  0
   -5.3922   28.6441    8.7619 H   0  0  0  0  0  0  0  0  0  0  0  0
   -4.1837   29.5597    7.4429 C   0  0  0  0  0  0  0  0  0  0  0  0
   -2.8551   29.1015    7.3099 C   0  0  0  0  0  0  0  0  0  0  0  0
   -2.2412   27.8073    7.4474 C   0  0  0  0  0  0  0  0  0  0  0  0
   -0.8814   27.8365    7.2265 C   0  0  0  0  0  0  0  0  0  0  0  0
   -0.3319   29.4106    6.8502 S   0  0  0  0  0  0  0  0  0  0  0  0
   -1.9056   30.0558    6.9779 C   0  0  0  0  0  0  0  0  0  0  0  0
   -2.1241   31.3630    6.7636 N   0  0  0  0  0  0  0  0  0  0  0  0
   -3.4120   31.6836    6.8994 C   0  0  0  0  0  0  0  0  0  0  0  0
   -4.4310   30.8718    7.2229 N   0  0  0  0  0  0  0  0  0  0  0  0
  9 10  2  0  0  0
 10 11  1  0  0  0
 11 12  2  0  0  0
 12  8  1  0  0  0
  8  7  1  0  0  0
  7  1  1  0  0  0
  1  2  2  0  0  0
  2  3  1  0  0  0
  3 15  1  0  0  0
 15 16  1  0  0  0
 16 18  1  0  0  0
 18 19  2  0  0  0
 19 20  1  0  0  0
 20 21  2  0  0  0
 21 22  1  0  0  0
 22 23  1  0  0  0
 23 24  2  0  0  0
 24 25  1  0  0  0
 25 26  2  0  0  0
  3  4  2  0  0  0
  4  5  1  0  0  0
  5  6  2  0  0  0
 12 13  1  0  0  0
 13 14  2  0  0  0
 14  9  1  0  0  0
  6  1  1  0  0  0
 26 18  1  0  0  0
 23 19  1  0  0  0
 16 17  1  0  0  0
M  END
> <minimizedAffinity>
-9.66127

$$$$
OCNT-2317414


 25 27  0  0  0  0  0  0  0  0999 V2000
   -5.6708   29.7448    8.2663 O   0  0  0  0  0  0  0  0  0  0  0  0
   -4.5913   29.7000    7.6703 C   0  0  0  0  0  0  0  0  0  0  0  0
   -3.4683   30.3753    8.1567 N   0  0  0  0  0  0  0  0  0  0  0  0
   -2.2692   30.6234    7.3492 C   0  0  0  0  0  0  0  0  0  0  0  0
   -1.0070   30.7207    8.1973 C   0  0  0  0  0  0  0  0  0  0  0  0
   -1.1589   31.7516    9.3055 C   0  0  0  0  0  0  0  0  0  0  0  0
   -2.3933   31.4446   10.1486 C   0  0  0  0  0  0  0  0  0  0  0  0
   -3.6710   31.2652    9.3156 C   0  0  0  0  0  0  0  0  0  0  0  0
   -4.2585   32.5729    8.8461 C   0  0  0  0  0  0  0  0  0  0  0  0
   -4.2309   33.7497    9.4425 N   0  0  0  0  0  0  0  0  0  0  0  0
   -4.8996   34.6067    8.6071 C   0  0  0  0  0  0  0  0  0  0  0  0
   -5.3394   33.9499    7.4843 C   0  0  0  0  0  0  0  0  0  0  0  0
   -4.9279   32.6581    7.6455 N   0  0  0  0  0  0  0  0  0  0  0  0
   -5.0419   31.8862    6.9964 H   0  0  0  0  0  0  0  0  0  0  0  0
   -4.4133   28.8873    6.3991 C   0  0  0  0  0  0  0  0  0  0  0  0
   -5.6437   28.9629    5.4926 C   0  0  0  0  0  0  0  0  0  0  0  0
   -5.5235   30.0962    4.6275 O   0  0  0  0  0  0  0  0  0  0  0  0
   -6.2486   30.0317    3.9812 H   0  0  0  0  0  0  0  0  0  0  0  0
   -5.7723   27.7194    4.6316 C   0  0  0  0  0  0  0  0  0  0  0  0
   -6.0249   26.4742    5.2272 C   0  0  0  0  0  0  0  0  0  0  0  0
   -6.1287   25.3218    4.4441 C   0  0  0  0  0  0  0  0  0  0  0  0
   -5.9783   25.4063    3.0616 C   0  0  0  0  0  0  0  0  0  0  0  0
   -6.1044   23.9856    2.0995 Cl  0  0  0  0  0  0  0  0  0  0  0  0
   -5.7256   26.6335    2.4539 C   0  0  0  0  0  0  0  0  0  0  0  0
   -5.6221   27.7857    3.2363 C   0  0  0  0  0  0  0  0  0  0  0  0
  1  2  2  0  0  0
  2 15  1  0  0  0
 15 16  1  0  0  0
 16 17  1  0  0  0
 16 19  1  0  0  0
 19 20  1  0  0  0
 20 21  2  0  0  0
 21 22  1  0  0  0
 22 23  1  0  0  0
 22 24  2  0  0  0
 24 25  1  0  0  0
  2  3  1  0  0  0
  3  4  1  0  0  0
  4  5  1  0  0  0
  5  6  1  0  0  0
  6  7  1  0  0  0
  7  8  1  0  0  0
  8  9  1  0  0  0
  9 10  2  0  0  0
 10 11  1  0  0  0
 11 12  2  0  0  0
 12 13  1  0  0  0
 25 19  2  0  0  0
  8  3  1  0  0  0
 13  9  1  0  0  0
 17 18  1  0  0  0
 13 14  1  0  0  0
M  END
> <minimizedAffinity>
-9.22417

$$$$
OCNT-2317417


 34 37  0  0  0  0  0  0  0  0999 V2000
   -2.7160   26.0164    3.8866 C   0  0  0  0  0  0  0  0  0  0  0  0
   -1.5930   26.1746    3.4257 O   0  0  0  0  0  0  0  0  0  0  0  0
   -3.2377   26.5613    5.0357 N   0  0  0  0  0  0  0  0  0  0  0  0
   -4.2201   26.4625    5.2458 H   0  0  0  0  0  0  0  0  0  0  0  0
   -5.4686   23.6433    1.6213 C   0  0  0  0  0  0  0  0  0  0  0  0
   -4.5117   23.0018    2.4162 C   0  0  0  0  0  0  0  0  0  0  0  0
   -3.6046   23.7643    3.1576 C   0  0  0  0  0  0  0  0  0  0  0  0
   -3.6690   25.1653    3.1180 C   0  0  0  0  0  0  0  0  0  0  0  0
   -4.6330   25.7979    2.3200 C   0  0  0  0  0  0  0  0  0  0  0  0
   -5.5433   25.0389    1.5819 C   0  0  0  0  0  0  0  0  0  0  0  0
   -6.6564   22.6745    0.7058 S   0  0  0  0  0  0  0  0  0  0  0  0
   -7.4054   23.5954   -0.1272 O   0  0  0  0  0  0  0  0  0  0  0  0
   -5.9399   21.5619    0.1148 O   0  0  0  0  0  0  0  0  0  0  0  0
   -7.7155   22.0795    1.9237 N   0  0  0  0  0  0  0  0  0  0  0  0
   -8.0561   23.0126    3.0091 C   0  0  0  0  0  0  0  0  0  0  0  0
   -7.2420   20.7806    3.7914 C   0  0  0  0  0  0  0  0  0  0  0  0
   -7.2097   20.8004    2.3658 O   0  0  0  0  0  0  0  0  0  0  0  0
   -2.5859   27.3570    5.9424 C   0  0  0  0  0  0  0  0  0  0  0  0
   -3.1720   28.4191    6.4425 N   0  0  0  0  0  0  0  0  0  0  0  0
   -2.3169   29.0617    7.3301 C   0  0  0  0  0  0  0  0  0  0  0  0
   -1.0967   28.4349    7.4989 C   0  0  0  0  0  0  0  0  0  0  0  0
   -1.0167   27.0354    6.5120 S   0  0  0  0  0  0  0  0  0  0  0  0
   -2.7290   30.2820    8.0211 C   0  0  0  0  0  0  0  0  0  0  0  0
   -2.1233   30.6174    9.2424 C   0  0  0  0  0  0  0  0  0  0  0  0
   -2.4938   31.7723    9.9375 C   0  0  0  0  0  0  0  0  0  0  0  0
   -3.4704   32.6101    9.4081 C   0  0  0  0  0  0  0  0  0  0  0  0
   -3.8473   33.7619   10.1034 N   0  0  0  0  0  0  0  0  0  0  0  0
   -4.6796   34.7259    9.5998 C   0  0  0  0  0  0  0  0  0  0  0  0
   -5.0198   35.6883   10.2839 O   0  0  0  0  0  0  0  0  0  0  0  0
   -5.0498   34.6001    8.1401 C   0  0  0  0  0  0  0  0  0  0  0  0
   -5.2371   33.1511    7.7215 C   0  0  0  0  0  0  0  0  0  0  0  0
   -4.0986   32.2936    8.2006 C   0  0  0  0  0  0  0  0  0  0  0  0
   -3.7314   31.1251    7.5159 C   0  0  0  0  0  0  0  0  0  0  0  0
   -3.5017   33.9264   11.0403 H   0  0  0  0  0  0  0  0  0  0  0  0
 16 17  1  0  0  0
 17 14  1  0  0  0
 14 15  1  0  0  0
 14 11  1  0  0  0
 11 12  2  0  0  0
 11 13  2  0  0  0
 11  5  1  0  0  0
  5  6  1  0  0  0
  6  7  2  0  0  0
  7  8  1  0  0  0
  8  1  1  0  0  0
  1  2  2  0  0  0
  1  3  1  0  0  0
  3 18  1  0  0  0
 18 19  2  0  0  0
 19 20  1  0  0  0
 20 23  1  0  0  0
 23 24  1  0  0  0
 24 25  2  0  0  0
 25 26  1  0  0  0
 26 27  1  0  0  0
 27 28  1  0  0  0
 28 29  2  0  0  0
 28 30  1  0  0  0
 30 31  1  0  0  0
 31 32  1  0  0  0
 32 33  1  0  0  0
 20 21  2  0  0  0
 21 22  1  0  0  0
  8  9  2  0  0  0
  9 10  1  0  0  0
 10  5  2  0  0  0
 22 18  1  0  0  0
 33 23  2  0  0  0
 32 26  2  0  0  0
  3  4  1  0  0  0
 27 34  1  0  0  0
M  END
> <minimizedAffinity>
-9.20193

$$$$
OCNT-2317425


 31 33  0  0  0  0  0  0  0  0999 V2000
   -4.7794   27.1222    4.2418 C   0  0  0  0  0  0  0  0  0  0  0  0
   -5.5930   27.5178    3.1807 C   0  0  0  0  0  0  0  0  0  0  0  0
   -6.2007   28.7673    3.2278 C   0  0  0  0  0  0  0  0  0  0  0  0
   -5.9789   29.6152    4.3204 C   0  0  0  0  0  0  0  0  0  0  0  0
   -5.1237   29.2495    5.3698 C   0  0  0  0  0  0  0  0  0  0  0  0
   -4.5493   27.9724    5.3288 C   0  0  0  0  0  0  0  0  0  0  0  0
   -4.0317   25.5143    4.1958 S   0  0  0  0  0  0  0  0  0  0  0  0
   -2.6836   25.6917    3.6983 O   0  0  0  0  0  0  0  0  0  0  0  0
   -4.2842   24.8432    5.4537 O   0  0  0  0  0  0  0  0  0  0  0  0
   -7.1346   23.5544   -0.7032 C   0  0  0  0  0  0  0  0  0  0  0  0
   -6.3356   23.5947    0.5286 N   0  0  0  0  0  0  0  0  0  0  0  0
   -7.2304   23.5198    1.6976 C   0  0  0  0  0  0  0  0  0  0  0  0
   -6.5918   22.8724    2.9269 C   0  0  0  0  0  0  0  0  0  0  0  0
   -5.1479   23.2550    3.2093 C   0  0  0  0  0  0  0  0  0  0  0  0
   -4.9455   24.7150    2.9946 N   0  0  0  0  0  0  0  0  0  0  0  0
   -4.4400   24.9663    1.6069 C   0  0  0  0  0  0  0  0  0  0  0  0
   -5.5600   24.8627    0.5518 C   0  0  0  0  0  0  0  0  0  0  0  0
   -4.9245   30.0288    6.5133 N   0  0  0  0  0  0  0  0  0  0  0  0
   -4.7046   29.4588    7.3278 H   0  0  0  0  0  0  0  0  0  0  0  0
   -4.1007   31.2261    6.4356 C   0  0  0  0  0  0  0  0  0  0  0  0
   -2.9188   31.0718    7.3653 C   0  0  0  0  0  0  0  0  0  0  0  0
   -2.9138   31.7160    8.6101 C   0  0  0  0  0  0  0  0  0  0  0  0
   -1.8307   31.5652    9.4677 C   0  0  0  0  0  0  0  0  0  0  0  0
   -1.8342   32.1921   10.6508 F   0  0  0  0  0  0  0  0  0  0  0  0
   -0.7426   30.7743    9.1182 C   0  0  0  0  0  0  0  0  0  0  0  0
   -0.7307   30.1040    7.8871 C   0  0  0  0  0  0  0  0  0  0  0  0
   -1.8238   30.2640    7.0150 C   0  0  0  0  0  0  0  0  0  0  0  0
    0.4525   29.2569    7.4893 C   0  0  0  0  0  0  0  0  0  0  0  0
    0.1363   27.9355    7.4121 F   0  0  0  0  0  0  0  0  0  0  0  0
    1.4877   29.3438    8.3702 F   0  0  0  0  0  0  0  0  0  0  0  0
    0.9679   29.5928    6.2748 F   0  0  0  0  0  0  0  0  0  0  0  0
 10 11  1  0  0  0
 11 12  1  0  0  0
 12 13  1  0  0  0
 13 14  1  0  0  0
 14 15  1  0  0  0
 15  7  1  0  0  0
  7  8  2  0  0  0
  7  9  2  0  0  0
  7  1  1  0  0  0
  1  2  2  0  0  0
  2  3  1  0  0  0
  3  4  2  0  0  0
  4  5  1  0  0  0
  5 18  1  0  0  0
 18 20  1  0  0  0
 20 21  1  0  0  0
 21 22  2  0  0  0
 22 23  1  0  0  0
 23 24  1  0  0  0
 23 25  2  0  0  0
 25 26  1  0  0  0
 26 28  1  0  0  0
 28 29  1  0  0  0
 28 30  1  0  0  0
 28 31  1  0  0  0
 26 27  2  0  0  0
  5  6  2  0  0  0
 15 16  1  0  0  0
 16 17  1  0  0  0
 17 11  1  0  0  0
  6  1  1  0  0  0
 27 21  1  0  0  0
 18 19  1  0  0  0
M  END
> <minimizedAffinity>
-10.78876

$$$$
OCNT-2317432


 24 26  0  0  0  0  0  0  0  0999 V2000
   -3.0000   26.5905    5.6810 N   0  0  0  0  0  0  0  0  0  0  0  0
   -2.7691   26.2100    4.3823 C   0  0  0  0  0  0  0  0  0  0  0  0
   -1.7083   26.3610    3.7940 O   0  0  0  0  0  0  0  0  0  0  0  0
   -3.8860   25.6355    3.8357 N   0  0  0  0  0  0  0  0  0  0  0  0
   -3.6476   25.9799    6.1598 H   0  0  0  0  0  0  0  0  0  0  0  0
   -4.7556   26.0066    4.1897 H   0  0  0  0  0  0  0  0  0  0  0  0
   -1.9000   27.0981    6.4697 C   0  0  0  0  0  0  0  0  0  0  0  0
   -1.5945   30.9918    6.5170 C   0  0  0  0  0  0  0  0  0  0  0  0
   -1.1339   29.6046    6.8775 C   0  0  0  0  0  0  0  0  0  0  0  0
    0.2790   29.3003    6.4586 C   0  0  0  0  0  0  0  0  0  0  0  0
   -2.1919   28.4949    6.8935 C   0  0  0  0  0  0  0  0  0  0  0  0
   -1.6247   29.0212    8.1603 C   0  0  0  0  0  0  0  0  0  0  0  0
   -2.4208   29.7510    9.0128 F   0  0  0  0  0  0  0  0  0  0  0  0
   -0.8126   28.2320    8.9417 F   0  0  0  0  0  0  0  0  0  0  0  0
   -3.8819   25.2800    2.4350 C   0  0  0  0  0  0  0  0  0  0  0  0
   -4.6489   24.0014    2.2100 C   0  0  0  0  0  0  0  0  0  0  0  0
   -4.3751   22.8891    3.0309 C   0  0  0  0  0  0  0  0  0  0  0  0
   -5.0572   21.6897    2.8841 C   0  0  0  0  0  0  0  0  0  0  0  0
   -6.0489   21.5643    1.9127 C   0  0  0  0  0  0  0  0  0  0  0  0
   -6.3756   22.6563    1.0750 C   0  0  0  0  0  0  0  0  0  0  0  0
   -5.6744   23.8576    1.2385 C   0  0  0  0  0  0  0  0  0  0  0  0
   -6.2519   25.0533    0.1261 S   0  0  0  0  0  0  0  0  0  0  0  0
   -7.3892   23.9912   -0.5615 C   0  0  0  0  0  0  0  0  0  0  0  0
   -7.3559   22.7522    0.0299 C   0  0  0  0  0  0  0  0  0  0  0  0
  8  9  1  0  0  0
  9 10  1  0  0  0
  9 11  1  0  0  0
 11  7  1  0  0  0
  7  1  1  0  0  0
  1  2  1  0  0  0
  2  3  2  0  0  0
  2  4  1  0  0  0
  4 15  1  0  0  0
 15 16  1  0  0  0
 16 17  1  0  0  0
 17 18  2  0  0  0
 18 19  1  0  0  0
 19 20  2  0  0  0
 20 21  1  0  0  0
 21 22  1  0  0  0
 22 23  1  0  0  0
 23 24  2  0  0  0
 11 12  1  0  0  0
 12 13  1  0  0  0
 12 14  1  0  0  0
 12  9  1  0  0  0
 21 16  2  0  0  0
 24 20  1  0  0  0
  1  5  1  0  0  0
  4  6  1  0  0  0
M  END
> <minimizedAffinity>
-9.21447

$$$$
OCNT-2317433


 22 24  0  0  0  0  0  0  0  0999 V2000
   -5.9143   27.9332    5.2667 C   0  0  0  0  0  0  0  0  0  0  0  0
   -6.8774   29.0863    5.5794 C   0  0  0  0  0  0  0  0  0  0  0  0
   -6.2459   29.8385    6.7492 C   0  0  0  0  0  0  0  0  0  0  0  0
   -5.2031   28.9379    7.2246 N   0  0  0  0  0  0  0  0  0  0  0  0
   -4.6441   28.3029    6.0305 C   0  0  0  0  0  0  0  0  0  0  0  0
   -5.6988   27.7336    3.7641 C   0  0  0  0  0  0  0  0  0  0  0  0
   -6.1097   23.5977    2.5314 C   0  0  0  0  0  0  0  0  0  0  0  0
   -5.8323   24.6021    1.5934 C   0  0  0  0  0  0  0  0  0  0  0  0
   -5.6949   25.9345    1.9917 C   0  0  0  0  0  0  0  0  0  0  0  0
   -5.8294   26.2923    3.3377 C   0  0  0  0  0  0  0  0  0  0  0  0
   -6.1074   25.2938    4.2774 C   0  0  0  0  0  0  0  0  0  0  0  0
   -6.2456   23.9617    3.8782 C   0  0  0  0  0  0  0  0  0  0  0  0
   -5.3374   21.2308    2.9279 C   0  0  0  0  0  0  0  0  0  0  0  0
   -6.2656   22.1439    2.1231 C   0  0  0  0  0  0  0  0  0  0  0  0
   -6.0470   21.9553    0.6198 C   0  0  0  0  0  0  0  0  0  0  0  0
   -4.2079   29.5157    8.1292 C   0  0  0  0  0  0  0  0  0  0  0  0
   -2.9994   30.1104    7.4916 C   0  0  0  0  0  0  0  0  0  0  0  0
   -2.9140   31.2458    6.8240 N   0  0  0  0  0  0  0  0  0  0  0  0
   -1.6096   31.3559    6.4111 N   0  0  0  0  0  0  0  0  0  0  0  0
   -0.8988   30.3080    6.8002 N   0  0  0  0  0  0  0  0  0  0  0  0
   -1.7610   29.5290    7.4701 N   0  0  0  0  0  0  0  0  0  0  0  0
   -1.3314   28.2785    8.0297 C   0  0  0  0  0  0  0  0  0  0  0  0
 13 14  1  0  0  0
 14 15  1  0  0  0
 14  7  1  0  0  0
  7  8  1  0  0  0
  8  9  2  0  0  0
  9 10  1  0  0  0
 10  6  1  0  0  0
  6  1  1  0  0  0
  1  2  1  0  0  0
  2  3  1  0  0  0
  3  4  1  0  0  0
  4 16  1  0  0  0
 16 17  1  0  0  0
 17 18  2  0  0  0
 18 19  1  0  0  0
 19 20  2  0  0  0
 20 21  1  0  0  0
 21 22  1  0  0  0
  4  5  1  0  0  0
 10 11  2  0  0  0
 11 12  1  0  0  0
 12  7  2  0  0  0
  5  1  1  0  0  0
 21 17  1  0  0  0
M  END
> <minimizedAffinity>
-8.50376

$$$$
OCNT-2317446


 28 31  0  0  0  0  0  0  0  0999 V2000
   -5.6091   24.7538    5.5910 N   0  0  0  0  0  0  0  0  0  0  0  0
   -5.5810   26.0850    5.2862 C   0  0  0  0  0  0  0  0  0  0  0  0
   -6.5854   26.6925    4.9177 O   0  0  0  0  0  0  0  0  0  0  0  0
   -4.3504   26.6973    5.4248 N   0  0  0  0  0  0  0  0  0  0  0  0
   -3.0693   26.0267    5.6727 C   0  0  0  0  0  0  0  0  0  0  0  0
   -2.3000   26.7205    6.7966 C   0  0  0  0  0  0  0  0  0  0  0  0
   -2.1766   28.2287    6.5410 C   0  0  0  0  0  0  0  0  0  0  0  0
   -3.5466   28.8845    6.2603 C   0  0  0  0  0  0  0  0  0  0  0  0
   -4.2350   28.1239    5.1161 C   0  0  0  0  0  0  0  0  0  0  0  0
   -5.0450   24.4840    6.3816 H   0  0  0  0  0  0  0  0  0  0  0  0
   -6.7357   23.0252    1.6907 C   0  0  0  0  0  0  0  0  0  0  0  0
   -7.2659   21.7239    1.8397 C   0  0  0  0  0  0  0  0  0  0  0  0
   -7.6238   21.2241    3.0955 C   0  0  0  0  0  0  0  0  0  0  0  0
   -7.4261   22.0269    4.2054 C   0  0  0  0  0  0  0  0  0  0  0  0
   -7.7557   21.7209    5.6333 C   0  0  0  0  0  0  0  0  0  0  0  0
   -6.9151   22.7753    6.3677 C   0  0  0  0  0  0  0  0  0  0  0  0
   -6.8254   23.9906    5.4222 C   0  0  0  0  0  0  0  0  0  0  0  0
   -6.8982   23.3159    4.0791 C   0  0  0  0  0  0  0  0  0  0  0  0
   -6.5602   23.8266    2.8330 C   0  0  0  0  0  0  0  0  0  0  0  0
   -5.9353   25.0442    0.3864 C   0  0  0  0  0  0  0  0  0  0  0  0
   -6.3391   23.5689    0.3274 C   0  0  0  0  0  0  0  0  0  0  0  0
   -7.4537   23.3457   -0.7030 C   0  0  0  0  0  0  0  0  0  0  0  0
   -4.3812   28.9711    7.5172 C   0  0  0  0  0  0  0  0  0  0  0  0
   -3.9399   29.3408    8.7099 N   0  0  0  0  0  0  0  0  0  0  0  0
   -5.0294   29.3204    9.5387 C   0  0  0  0  0  0  0  0  0  0  0  0
   -6.1586   28.9409    8.8481 C   0  0  0  0  0  0  0  0  0  0  0  0
   -5.7385   28.7147    7.5649 N   0  0  0  0  0  0  0  0  0  0  0  0
   -6.3219   28.4036    6.7924 H   0  0  0  0  0  0  0  0  0  0  0  0
 20 21  1  0  0  0
 21 22  1  0  0  0
 21 11  1  0  0  0
 11 12  1  0  0  0
 12 13  2  0  0  0
 13 14  1  0  0  0
 14 15  1  0  0  0
 15 16  1  0  0  0
 16 17  1  0  0  0
 17  1  1  0  0  0
  1  2  1  0  0  0
  2  3  2  0  0  0
  2  4  1  0  0  0
  4  5  1  0  0  0
  5  6  1  0  0  0
  6  7  1  0  0  0
  7  8  1  0  0  0
  8 23  1  0  0  0
 23 24  2  0  0  0
 24 25  1  0  0  0
 25 26  2  0  0  0
 26 27  1  0  0  0
  8  9  1  0  0  0
 17 18  1  0  0  0
 18 19  1  0  0  0
 19 11  2  0  0  0
 18 14  2  0  0  0
  9  4  1  0  0  0
 27 23  1  0  0  0
  1 10  1  0  0  0
 27 28  1  0  0  0
M  END
> <minimizedAffinity>
-9.18004

$$$$
OCNT-2317449


 25 27  0  0  0  0  0  0  0  0999 V2000
   -5.8734   27.9989    4.0843 C   0  0  0  0  0  0  0  0  0  0  0  0
   -6.1071   28.8482    3.2148 O   0  0  0  0  0  0  0  0  0  0  0  0
   -5.4966   26.7080    3.7197 N   0  0  0  0  0  0  0  0  0  0  0  0
   -5.0189   25.6921    4.6679 C   0  0  0  0  0  0  0  0  0  0  0  0
   -4.4350   24.4224    4.0347 C   0  0  0  0  0  0  0  0  0  0  0  0
   -5.2775   23.9580    2.8804 C   0  0  0  0  0  0  0  0  0  0  0  0
   -5.5150   22.6043    2.6267 C   0  0  0  0  0  0  0  0  0  0  0  0
   -6.2781   22.2298    1.5201 C   0  0  0  0  0  0  0  0  0  0  0  0
   -6.7889   23.2063    0.6652 C   0  0  0  0  0  0  0  0  0  0  0  0
   -7.7220   22.7371   -0.7030 Cl  0  0  0  0  0  0  0  0  0  0  0  0
   -6.5436   24.5583    0.9032 C   0  0  0  0  0  0  0  0  0  0  0  0
   -5.7891   24.9419    2.0176 C   0  0  0  0  0  0  0  0  0  0  0  0
   -5.4584   26.3888    2.2920 C   0  0  0  0  0  0  0  0  0  0  0  0
   -7.0127   29.6092    5.5792 C   0  0  0  0  0  0  0  0  0  0  0  0
   -6.1581   28.3281    5.5913 C   0  0  0  0  0  0  0  0  0  0  0  0
   -6.9171   27.4040    6.3633 O   0  0  0  0  0  0  0  0  0  0  0  0
   -6.3004   26.7556    6.7669 H   0  0  0  0  0  0  0  0  0  0  0  0
   -4.8153   28.6505    6.3199 C   0  0  0  0  0  0  0  0  0  0  0  0
   -4.8063   29.8730    7.1511 N   0  0  0  0  0  0  0  0  0  0  0  0
   -4.1864   31.0125    6.6562 C   0  0  0  0  0  0  0  0  0  0  0  0
   -4.1825   32.1607    7.3437 C   0  0  0  0  0  0  0  0  0  0  0  0
   -4.8402   32.2384    8.6212 C   0  0  0  0  0  0  0  0  0  0  0  0
   -5.4453   31.1616    9.1364 C   0  0  0  0  0  0  0  0  0  0  0  0
   -5.4412   29.8756    8.3898 C   0  0  0  0  0  0  0  0  0  0  0  0
   -5.9631   28.8836    8.8944 O   0  0  0  0  0  0  0  0  0  0  0  0
 14 15  1  0  0  0
 15 16  1  0  0  0
 15 18  1  0  0  0
 18 19  1  0  0  0
 19 20  1  0  0  0
 20 21  2  0  0  0
 21 22  1  0  0  0
 22 23  2  0  0  0
 23 24  1  0  0  0
 24 25  2  0  0  0
 15  1  1  0  0  0
  1  2  2  0  0  0
  1  3  1  0  0  0
  3  4  1  0  0  0
  4  5  1  0  0  0
  5  6  1  0  0  0
  6  7  1  0  0  0
  7  8  2  0  0  0
  8  9  1  0  0  0
  9 10  1  0  0  0
  9 11  2  0  0  0
 11 12  1  0  0  0
 12 13  1  0  0  0
 24 19  1  0  0  0
 13  3  1  0  0  0
 12  6  2  0  0  0
 16 17  1  0  0  0
M  END
> <minimizedAffinity>
-9.42325

$$$$
OCNT-2317457


 26 29  0  0  0  0  0  0  0  0999 V2000
   -3.8826   32.0667    6.6455 C   0  0  0  0  0  0  0  0  0  0  0  0
   -4.7429   32.3646    7.9048 C   0  0  0  0  0  0  0  0  0  0  0  0
   -3.8961   32.9701    9.0438 C   0  0  0  0  0  0  0  0  0  0  0  0
   -2.7941   32.0065    9.5246 C   0  0  0  0  0  0  0  0  0  0  0  0
   -2.1179   31.3443    8.3727 C   0  0  0  0  0  0  0  0  0  0  0  0
   -2.6416   31.3627    7.0951 C   0  0  0  0  0  0  0  0  0  0  0  0
   -1.8078   30.6463    6.2823 N   0  0  0  0  0  0  0  0  0  0  0  0
   -0.7423   30.1629    7.0084 C   0  0  0  0  0  0  0  0  0  0  0  0
    0.3475   29.3842    6.6009 C   0  0  0  0  0  0  0  0  0  0  0  0
    1.2903   29.0303    7.5710 C   0  0  0  0  0  0  0  0  0  0  0  0
    1.1462   29.4381    8.8953 C   0  0  0  0  0  0  0  0  0  0  0  0
    0.0499   30.2150    9.2879 C   0  0  0  0  0  0  0  0  0  0  0  0
   -0.9132   30.5874    8.3295 C   0  0  0  0  0  0  0  0  0  0  0  0
   -1.9756   30.4795    5.3000 H   0  0  0  0  0  0  0  0  0  0  0  0
   -4.5737   31.2199    5.6746 N   0  0  0  0  0  0  0  0  0  0  0  0
   -3.9179   30.9287    4.9555 H   0  0  0  0  0  0  0  0  0  0  0  0
   -5.2594   30.0710    6.2506 C   0  0  0  0  0  0  0  0  0  0  0  0
   -4.8630   26.9970    4.2912 C   0  0  0  0  0  0  0  0  0  0  0  0
   -5.9317   27.4648    3.6872 N   0  0  0  0  0  0  0  0  0  0  0  0
   -6.2172   28.6541    4.2964 C   0  0  0  0  0  0  0  0  0  0  0  0
   -5.3425   28.9106    5.3318 C   0  0  0  0  0  0  0  0  0  0  0  0
   -4.4813   27.8325    5.3207 N   0  0  0  0  0  0  0  0  0  0  0  0
   -3.3899   27.5978    6.2356 C   0  0  0  0  0  0  0  0  0  0  0  0
   -3.2739   25.9341    2.8756 C   0  0  0  0  0  0  0  0  0  0  0  0
   -4.1947   25.8405    4.0140 N   0  0  0  0  0  0  0  0  0  0  0  0
   -5.0717   24.6661    3.9219 C   0  0  0  0  0  0  0  0  0  0  0  0
 24 25  1  0  0  0
 25 26  1  0  0  0
 25 18  1  0  0  0
 18 19  2  0  0  0
 19 20  1  0  0  0
 20 21  2  0  0  0
 21 17  1  0  0  0
 17 15  1  0  0  0
 15  1  1  0  0  0
  1  2  1  0  0  0
  2  3  1  0  0  0
  3  4  1  0  0  0
  4  5  1  0  0  0
  5  6  2  0  0  0
  6  7  1  0  0  0
  7  8  1  0  0  0
  8  9  2  0  0  0
  9 10  1  0  0  0
 10 11  2  0  0  0
 11 12  1  0  0  0
 12 13  2  0  0  0
 21 22  1  0  0  0
 22 23  1  0  0  0
 22 18  1  0  0  0
  6  1  1  0  0  0
 13  8  1  0  0  0
 13  5  1  0  0  0
 15 16  1  0  0  0
  7 14  1  0  0  0
M  END
> <minimizedAffinity>
-9.13315

$$$$
OCNT-2317458


 23 26  0  0  0  0  0  0  0  0999 V2000
   -1.0375   28.6950    7.8256 C   0  0  0  0  0  0  0  0  0  0  0  0
   -2.4140   28.9749    7.8643 C   0  0  0  0  0  0  0  0  0  0  0  0
   -3.3103   28.3405    6.9968 C   0  0  0  0  0  0  0  0  0  0  0  0
   -2.8098   27.4236    6.0914 C   0  0  0  0  0  0  0  0  0  0  0  0
   -1.4448   27.1413    6.0483 C   0  0  0  0  0  0  0  0  0  0  0  0
   -0.5458   27.7661    6.9062 C   0  0  0  0  0  0  0  0  0  0  0  0
   -1.1304   26.1239    4.9998 C   0  0  0  0  0  0  0  0  0  0  0  0
   -2.5136   25.8351    4.4027 C   0  0  0  0  0  0  0  0  0  0  0  0
   -3.4951   26.6654    5.1258 N   0  0  0  0  0  0  0  0  0  0  0  0
   -4.8606   26.7012    4.8969 C   0  0  0  0  0  0  0  0  0  0  0  0
   -5.6899   27.3797    5.4938 O   0  0  0  0  0  0  0  0  0  0  0  0
   -5.3675   25.8279    3.8182 C   0  0  0  0  0  0  0  0  0  0  0  0
   -5.3692   26.3507    2.5181 C   0  0  0  0  0  0  0  0  0  0  0  0
   -5.8535   25.5794    1.4671 C   0  0  0  0  0  0  0  0  0  0  0  0
   -6.3285   24.2910    1.7152 C   0  0  0  0  0  0  0  0  0  0  0  0
   -6.3141   23.7534    3.0172 C   0  0  0  0  0  0  0  0  0  0  0  0
   -6.7764   22.4641    3.2932 C   0  0  0  0  0  0  0  0  0  0  0  0
   -6.7838   21.8940    4.5195 N   0  0  0  0  0  0  0  0  0  0  0  0
   -6.2922   22.6353    5.5307 C   0  0  0  0  0  0  0  0  0  0  0  0
   -5.8102   23.9247    5.3755 C   0  0  0  0  0  0  0  0  0  0  0  0
   -5.8208   24.5161    4.0956 C   0  0  0  0  0  0  0  0  0  0  0  0
   -0.7366   30.7050    9.0606 C   0  0  0  0  0  0  0  0  0  0  0  0
   -0.2916   29.3946    8.7351 O   0  0  0  0  0  0  0  0  0  0  0  0
 22 23  1  0  0  0
 23  1  1  0  0  0
  1  2  1  0  0  0
  2  3  2  0  0  0
  3  4  1  0  0  0
  4  5  2  0  0  0
  5  6  1  0  0  0
  5  7  1  0  0  0
  7  8  1  0  0  0
  8  9  1  0  0  0
  9 10  1  0  0  0
 10 11  2  0  0  0
 10 12  1  0  0  0
 12 13  2  0  0  0
 13 14  1  0  0  0
 14 15  2  0  0  0
 15 16  1  0  0  0
 16 17  2  0  0  0
 17 18  1  0  0  0
 18 19  2  0  0  0
 19 20  1  0  0  0
 20 21  2  0  0  0
  6  1  2  0  0  0
 21 12  1  0  0  0
  9  4  1  0  0  0
 21 16  1  0  0  0
M  END
> <minimizedAffinity>
-9.08802

$$$$
OCNT-2317464


 27 29  0  0  0  0  0  0  0  0999 V2000
   -3.5270   26.6272    5.5646 C   0  0  0  0  0  0  0  0  0  0  0  0
   -2.3631   27.5439    5.9967 C   0  0  0  0  0  0  0  0  0  0  0  0
   -1.1901   27.2104    5.8009 O   0  0  0  0  0  0  0  0  0  0  0  0
   -2.6855   28.7206    6.6632 N   0  0  0  0  0  0  0  0  0  0  0  0
   -1.5951   29.5576    7.1793 C   0  0  0  0  0  0  0  0  0  0  0  0
   -1.9621   30.2514    8.4963 C   0  0  0  0  0  0  0  0  0  0  0  0
   -3.2052   31.0217    8.4056 N   0  0  0  0  0  0  0  0  0  0  0  0
   -3.3886   32.0831    9.2797 C   0  0  0  0  0  0  0  0  0  0  0  0
   -2.5905   32.3768   10.1626 O   0  0  0  0  0  0  0  0  0  0  0  0
   -4.1437   30.6453    7.3467 C   0  0  0  0  0  0  0  0  0  0  0  0
   -4.0517   29.1587    6.9705 C   0  0  0  0  0  0  0  0  0  0  0  0
   -4.6268   32.8944    9.1068 C   0  0  0  0  0  0  0  0  0  0  0  0
   -4.7084   34.2813    9.7059 C   0  0  0  0  0  0  0  0  0  0  0  0
   -4.6210   34.1196    8.2190 C   0  0  0  0  0  0  0  0  0  0  0  0
   -3.9673   26.9925    4.2137 N   0  0  0  0  0  0  0  0  0  0  0  0
   -3.4844   26.4001    3.5310 H   0  0  0  0  0  0  0  0  0  0  0  0
   -5.4181   26.9937    3.9479 C   0  0  0  0  0  0  0  0  0  0  0  0
   -5.8583   28.2344    3.1392 C   0  0  0  0  0  0  0  0  0  0  0  0
   -6.1645   27.0014    5.3023 C   0  0  0  0  0  0  0  0  0  0  0  0
   -6.3877   23.5254    1.4368 C   0  0  0  0  0  0  0  0  0  0  0  0
   -6.0052   24.7438    0.8715 C   0  0  0  0  0  0  0  0  0  0  0  0
   -5.6929   25.8355    1.6872 C   0  0  0  0  0  0  0  0  0  0  0  0
   -5.7498   25.7495    3.0935 C   0  0  0  0  0  0  0  0  0  0  0  0
   -6.1447   24.5196    3.6445 C   0  0  0  0  0  0  0  0  0  0  0  0
   -6.4594   23.4248    2.8291 C   0  0  0  0  0  0  0  0  0  0  0  0
   -7.6221   22.7641   -0.6091 C   0  0  0  0  0  0  0  0  0  0  0  0
   -6.7419   22.3517    0.5615 C   0  0  0  0  0  0  0  0  0  0  0  0
 26 27  1  0  0  0
 27 20  1  0  0  0
 20 21  1  0  0  0
 21 22  2  0  0  0
 22 23  1  0  0  0
 23 17  1  0  0  0
 17 18  1  0  0  0
 17 19  1  0  0  0
 17 15  1  0  0  0
 15  1  1  0  0  0
  1  2  1  0  0  0
  2  3  2  0  0  0
  2  4  1  0  0  0
  4  5  1  0  0  0
  5  6  1  0  0  0
  6  7  1  0  0  0
  7  8  1  0  0  0
  8  9  2  0  0  0
  8 12  1  0  0  0
 12 13  1  0  0  0
 13 14  1  0  0  0
  7 10  1  0  0  0
 10 11  1  0  0  0
 23 24  2  0  0  0
 24 25  1  0  0  0
 25 20  2  0  0  0
 11  4  1  0  0  0
 14 12  1  0  0  0
 15 16  1  0  0  0
M  END
> <minimizedAffinity>
-9.97959

$$$$
OCNT-2317466


 25 28  0  0  0  0  0  0  0  0999 V2000
   -6.6925   30.1344    6.5244 N   0  0  0  0  0  0  0  0  0  0  0  0
   -7.6931   30.3170    6.5923 H   0  0  0  0  0  0  0  0  0  0  0  0
   -6.0963   24.5826    5.2347 C   0  0  0  0  0  0  0  0  0  0  0  0
   -5.9802   25.6994    4.2658 C   0  0  0  0  0  0  0  0  0  0  0  0
   -5.7180   25.4513    2.9725 N   0  0  0  0  0  0  0  0  0  0  0  0
   -5.6911   26.6800    2.4147 N   0  0  0  0  0  0  0  0  0  0  0  0
   -5.9175   27.6937    3.2972 C   0  0  0  0  0  0  0  0  0  0  0  0
   -5.9569   29.0075    3.0133 N   0  0  0  0  0  0  0  0  0  0  0  0
   -6.2114   29.7616    4.1186 C   0  0  0  0  0  0  0  0  0  0  0  0
   -6.3806   29.3120    5.4362 C   0  0  0  0  0  0  0  0  0  0  0  0
   -6.3646   27.9222    5.6289 C   0  0  0  0  0  0  0  0  0  0  0  0
   -6.1082   27.0895    4.5270 C   0  0  0  0  0  0  0  0  0  0  0  0
   -5.5162   26.7694    1.4224 H   0  0  0  0  0  0  0  0  0  0  0  0
   -6.1228   29.8801    7.8456 C   0  0  0  0  0  0  0  0  0  0  0  0
   -4.9621   30.7949    8.1345 C   0  0  0  0  0  0  0  0  0  0  0  0
   -5.1365   31.9985    8.8306 C   0  0  0  0  0  0  0  0  0  0  0  0
   -4.0447   32.8323    9.0836 C   0  0  0  0  0  0  0  0  0  0  0  0
   -2.7681   32.4785    8.6398 C   0  0  0  0  0  0  0  0  0  0  0  0
   -2.5818   31.2917    7.9301 C   0  0  0  0  0  0  0  0  0  0  0  0
   -3.6768   30.4568    7.6951 C   0  0  0  0  0  0  0  0  0  0  0  0
   -3.5019   29.3085    7.0199 F   0  0  0  0  0  0  0  0  0  0  0  0
   -1.3643   30.8553    7.4702 O   0  0  0  0  0  0  0  0  0  0  0  0
   -0.5476   30.1512    8.4246 C   0  0  0  0  0  0  0  0  0  0  0  0
    0.5866   29.3674    7.8191 C   0  0  0  0  0  0  0  0  0  0  0  0
   -0.6050   28.6482    8.3775 C   0  0  0  0  0  0  0  0  0  0  0  0
  3  4  1  0  0  0
  4  5  2  0  0  0
  5  6  1  0  0  0
  6  7  1  0  0  0
  7  8  1  0  0  0
  8  9  2  0  0  0
  9 10  1  0  0  0
 10  1  1  0  0  0
  1 14  1  0  0  0
 14 15  1  0  0  0
 15 16  2  0  0  0
 16 17  1  0  0  0
 17 18  2  0  0  0
 18 19  1  0  0  0
 19 22  1  0  0  0
 22 23  1  0  0  0
 23 24  1  0  0  0
 24 25  1  0  0  0
 19 20  2  0  0  0
 20 21  1  0  0  0
 10 11  2  0  0  0
 11 12  1  0  0  0
 12  4  1  0  0  0
 12  7  2  0  0  0
 20 15  1  0  0  0
 25 23  1  0  0  0
  6 13  1  0  0  0
  1  2  1  0  0  0
M  END
> <minimizedAffinity>
-8.61573

$$$$
OCNT-2317467


 24 26  0  0  0  0  0  0  0  0999 V2000
   -3.5434   28.0124    5.7440 N   0  0  0  0  0  0  0  0  0  0  0  0
   -2.8448   28.1115    6.9349 C   0  0  0  0  0  0  0  0  0  0  0  0
   -2.2643   27.1793    7.4867 O   0  0  0  0  0  0  0  0  0  0  0  0
   -3.8188   28.9171    5.3673 H   0  0  0  0  0  0  0  0  0  0  0  0
   -2.8325   29.5690    7.5183 C   0  0  0  0  0  0  0  0  0  0  0  0
   -2.5822   30.5099    6.3765 N   0  0  0  0  0  0  0  0  0  0  0  0
   -1.8388   31.6933    6.8379 C   0  0  0  0  0  0  0  0  0  0  0  0
   -2.4155   32.3336    8.1018 C   0  0  0  0  0  0  0  0  0  0  0  0
   -3.8392   32.4046    8.0049 O   0  0  0  0  0  0  0  0  0  0  0  0
   -4.4883   31.2988    8.5003 C   0  0  0  0  0  0  0  0  0  0  0  0
   -5.6669   31.6139    9.1901 C   0  0  0  0  0  0  0  0  0  0  0  0
   -6.4378   30.6131    9.7695 C   0  0  0  0  0  0  0  0  0  0  0  0
   -6.0318   29.2909    9.6571 C   0  0  0  0  0  0  0  0  0  0  0  0
   -4.8706   28.9696    8.9460 C   0  0  0  0  0  0  0  0  0  0  0  0
   -4.0834   29.9571    8.3180 C   0  0  0  0  0  0  0  0  0  0  0  0
   -3.5064   30.8402    6.0761 H   0  0  0  0  0  0  0  0  0  0  0  0
   -6.6394   24.3772    4.5946 C   0  0  0  0  0  0  0  0  0  0  0  0
   -5.3167   25.0597    4.4093 C   0  0  0  0  0  0  0  0  0  0  0  0
   -5.0131   26.2173    5.1411 C   0  0  0  0  0  0  0  0  0  0  0  0
   -3.7872   26.8626    4.9755 C   0  0  0  0  0  0  0  0  0  0  0  0
   -2.8975   26.3041    4.0689 C   0  0  0  0  0  0  0  0  0  0  0  0
   -3.1523   25.1832    3.3468 N   0  0  0  0  0  0  0  0  0  0  0  0
   -4.3500   24.5750    3.5215 C   0  0  0  0  0  0  0  0  0  0  0  0
   -4.5838   23.3423    2.6969 C   0  0  0  0  0  0  0  0  0  0  0  0
 17 18  1  0  0  0
 18 19  1  0  0  0
 19 20  2  0  0  0
 20  1  1  0  0  0
  1  2  1  0  0  0
  2  3  2  0  0  0
  2  5  1  0  0  0
  5  6  1  0  0  0
  6  7  1  0  0  0
  7  8  1  0  0  0
  8  9  1  0  0  0
  9 10  1  0  0  0
 10 11  2  0  0  0
 11 12  1  0  0  0
 12 13  2  0  0  0
 13 14  1  0  0  0
 14 15  2  0  0  0
 20 21  1  0  0  0
 21 22  2  0  0  0
 22 23  1  0  0  0
 23 24  1  0  0  0
 23 18  2  0  0  0
 15  5  1  0  0  0
 15 10  1  0  0  0
  1  4  1  0  0  0
  6 16  1  0  0  0
M  END
> <minimizedAffinity>
-8.52665

$$$$
OCNT-2317470


 24 26  0  0  0  0  0  0  0  0999 V2000
   -1.4110   26.3072    3.7776 O   0  0  0  0  0  0  0  0  0  0  0  0
   -2.3485   26.2350    4.5738 C   0  0  0  0  0  0  0  0  0  0  0  0
   -3.6562   25.9625    4.1523 N   0  0  0  0  0  0  0  0  0  0  0  0
   -4.7607   25.7549    5.0862 C   0  0  0  0  0  0  0  0  0  0  0  0
   -6.0431   25.1321    4.5396 C   0  0  0  0  0  0  0  0  0  0  0  0
   -5.8319   23.7528    3.9073 C   0  0  0  0  0  0  0  0  0  0  0  0
   -5.4079   23.7379    2.5016 N   0  0  0  0  0  0  0  0  0  0  0  0
   -4.0616   24.3137    2.3191 C   0  0  0  0  0  0  0  0  0  0  0  0
   -3.8922   25.7915    2.7154 C   0  0  0  0  0  0  0  0  0  0  0  0
   -6.4105   24.2440    1.5513 C   0  0  0  0  0  0  0  0  0  0  0  0
   -7.2192   23.1475    0.8426 C   0  0  0  0  0  0  0  0  0  0  0  0
   -7.8596   23.8564   -0.3453 C   0  0  0  0  0  0  0  0  0  0  0  0
   -6.9313   25.0176   -0.6881 C   0  0  0  0  0  0  0  0  0  0  0  0
   -5.8082   24.9789    0.3441 C   0  0  0  0  0  0  0  0  0  0  0  0
   -2.1370   26.4682    6.0834 C   0  0  0  0  0  0  0  0  0  0  0  0
   -1.0955   27.3652    6.4383 O   0  0  0  0  0  0  0  0  0  0  0  0
   -1.3741   28.3745    7.3178 C   0  0  0  0  0  0  0  0  0  0  0  0
   -2.6438   28.7223    7.7867 C   0  0  0  0  0  0  0  0  0  0  0  0
   -2.7908   29.7880    8.6814 C   0  0  0  0  0  0  0  0  0  0  0  0
   -1.6731   30.5025    9.1008 C   0  0  0  0  0  0  0  0  0  0  0  0
   -1.8259   31.5194    9.9587 F   0  0  0  0  0  0  0  0  0  0  0  0
   -0.4065   30.1778    8.6430 C   0  0  0  0  0  0  0  0  0  0  0  0
   -0.2682   29.1186    7.7530 C   0  0  0  0  0  0  0  0  0  0  0  0
    0.9632   28.8059    7.3203 F   0  0  0  0  0  0  0  0  0  0  0  0
  1  2  2  0  0  0
  2 15  1  0  0  0
 15 16  1  0  0  0
 16 17  1  0  0  0
 17 18  1  0  0  0
 18 19  2  0  0  0
 19 20  1  0  0  0
 20 21  1  0  0  0
 20 22  2  0  0  0
 22 23  1  0  0  0
 23 24  1  0  0  0
  2  3  1  0  0  0
  3  4  1  0  0  0
  4  5  1  0  0  0
  5  6  1  0  0  0
  6  7  1  0  0  0
  7 10  1  0  0  0
 10 11  1  0  0  0
 11 12  1  0  0  0
 12 13  1  0  0  0
 13 14  1  0  0  0
  7  8  1  0  0  0
  8  9  1  0  0  0
 23 17  2  0  0  0
  9  3  1  0  0  0
 14 10  1  0  0  0
M  END
> <minimizedAffinity>
-9.58158

$$$$
OCNT-2317471


 23 25  0  0  0  0  0  0  0  0999 V2000
   -3.7305   31.0495    7.0132 C   0  0  0  0  0  0  0  0  0  0  0  0
   -5.3873   26.3141    4.4887 C   0  0  0  0  0  0  0  0  0  0  0  0
   -5.5765   26.3667    2.9693 C   0  0  0  0  0  0  0  0  0  0  0  0
   -6.3602   27.2291    5.2758 C   0  0  0  0  0  0  0  0  0  0  0  0
   -5.2767   28.1973    5.3387 N   0  0  0  0  0  0  0  0  0  0  0  0
   -5.2387   29.3364    6.0914 C   0  0  0  0  0  0  0  0  0  0  0  0
   -6.2370   29.8184    6.6173 O   0  0  0  0  0  0  0  0  0  0  0  0
   -3.9929   29.8949    6.1930 N   0  0  0  0  0  0  0  0  0  0  0  0
   -4.2437   27.2464    4.9695 C   0  0  0  0  0  0  0  0  0  0  0  0
   -3.2101   29.3613    5.8432 H   0  0  0  0  0  0  0  0  0  0  0  0
   -6.5917   24.1884    5.1890 C   0  0  0  0  0  0  0  0  0  0  0  0
   -5.2484   24.8851    5.0318 C   0  0  0  0  0  0  0  0  0  0  0  0
   -2.2680   31.2155    7.3598 C   0  0  0  0  0  0  0  0  0  0  0  0
   -1.3712   30.1082    6.8686 C   0  0  0  0  0  0  0  0  0  0  0  0
   -0.7549   29.5632    8.0908 N   0  0  0  0  0  0  0  0  0  0  0  0
   -0.6694   30.6443    9.0878 C   0  0  0  0  0  0  0  0  0  0  0  0
   -1.8072   31.5588    8.7575 C   0  0  0  0  0  0  0  0  0  0  0  0
   -1.6391   32.5737    7.6413 C   0  0  0  0  0  0  0  0  0  0  0  0
   -1.3763   28.8418    8.4584 H   0  0  0  0  0  0  0  0  0  0  0  0
   -2.7300   31.8338    9.8943 C   0  0  0  0  0  0  0  0  0  0  0  0
   -3.5504   30.7807   10.1121 F   0  0  0  0  0  0  0  0  0  0  0  0
   -3.5011   32.9145    9.6330 F   0  0  0  0  0  0  0  0  0  0  0  0
   -2.0702   32.0782   11.0537 F   0  0  0  0  0  0  0  0  0  0  0  0
 11 12  1  0  0  0
 12  2  1  0  0  0
  2  3  1  0  0  0
  2  4  1  0  0  0
  4  5  1  0  0  0
  5  6  1  0  0  0
  6  7  2  0  0  0
  6  8  1  0  0  0
  8  1  1  0  0  0
 13  1  1  0  0  0
 13 14  1  0  0  0
 14 15  1  0  0  0
 15 16  1  0  0  0
 16 17  1  0  0  0
 17 20  1  0  0  0
 20 21  1  0  0  0
 20 22  1  0  0  0
 20 23  1  0  0  0
 17 18  1  0  0  0
  5  9  1  0  0  0
  9  2  1  0  0  0
 17 13  1  0  0  0
 18 13  1  0  0  0
  8 10  1  0  0  0
 15 19  1  0  0  0
M  END
> <minimizedAffinity>
-7.97893

$$$$
OCNT-2317479


 29 31  0  0  0  0  0  0  0  0999 V2000
   -4.4637   25.6483    2.7088 N   0  0  0  0  0  0  0  0  0  0  0  0
   -4.9315   25.8444    3.9860 C   0  0  0  0  0  0  0  0  0  0  0  0
   -5.1229   24.9198    4.7702 O   0  0  0  0  0  0  0  0  0  0  0  0
   -4.4890   26.4024    2.0384 H   0  0  0  0  0  0  0  0  0  0  0  0
   -5.2067   27.2342    4.3404 C   0  0  0  0  0  0  0  0  0  0  0  0
   -4.5509   27.9874    5.3124 C   0  0  0  0  0  0  0  0  0  0  0  0
   -3.3324   27.6342    6.0936 C   0  0  0  0  0  0  0  0  0  0  0  0
   -5.2113   29.2148    5.3846 N   0  0  0  0  0  0  0  0  0  0  0  0
   -6.1005   29.3384    4.3587 N   0  0  0  0  0  0  0  0  0  0  0  0
   -6.1280   28.1409    3.7834 C   0  0  0  0  0  0  0  0  0  0  0  0
   -5.1193   30.2883    6.3093 C   0  0  0  0  0  0  0  0  0  0  0  0
   -4.2282   31.2225    6.1448 N   0  0  0  0  0  0  0  0  0  0  0  0
   -4.1920   32.2173    7.0835 N   0  0  0  0  0  0  0  0  0  0  0  0
   -5.0078   32.3131    8.1803 C   0  0  0  0  0  0  0  0  0  0  0  0
   -4.9191   33.2030    9.0173 O   0  0  0  0  0  0  0  0  0  0  0  0
   -6.0447   31.2697    8.2979 C   0  0  0  0  0  0  0  0  0  0  0  0
   -6.1229   30.2830    7.3998 C   0  0  0  0  0  0  0  0  0  0  0  0
   -3.4769   32.9272    6.9616 H   0  0  0  0  0  0  0  0  0  0  0  0
   -4.3641   24.3283    2.1293 C   0  0  0  0  0  0  0  0  0  0  0  0
   -6.1685   22.8073    1.1766 C   0  0  0  0  0  0  0  0  0  0  0  0
   -7.2473   22.5973    0.3121 C   0  0  0  0  0  0  0  0  0  0  0  0
   -7.6622   23.6103   -0.5552 C   0  0  0  0  0  0  0  0  0  0  0  0
   -7.0059   24.8377   -0.5627 C   0  0  0  0  0  0  0  0  0  0  0  0
   -5.9391   25.0606    0.3062 C   0  0  0  0  0  0  0  0  0  0  0  0
   -5.5165   24.0559    1.1913 C   0  0  0  0  0  0  0  0  0  0  0  0
   -5.6851   21.8687    2.0527 O   0  0  0  0  0  0  0  0  0  0  0  0
   -6.6483   21.1579    2.8292 C   0  0  0  0  0  0  0  0  0  0  0  0
   -8.0829   22.6352    4.2763 C   0  0  0  0  0  0  0  0  0  0  0  0
   -6.9295   21.9960    4.0400 C   0  0  0  0  0  0  0  0  0  0  0  0
 28 29  2  0  0  0
 29 27  1  0  0  0
 27 26  1  0  0  0
 26 20  1  0  0  0
 20 21  2  0  0  0
 21 22  1  0  0  0
 22 23  2  0  0  0
 23 24  1  0  0  0
 24 25  2  0  0  0
 25 19  1  0  0  0
 19  1  1  0  0  0
  1  2  1  0  0  0
  2  3  2  0  0  0
  2  5  1  0  0  0
  5  6  2  0  0  0
  6  7  1  0  0  0
  6  8  1  0  0  0
  8 11  1  0  0  0
 11 12  2  0  0  0
 12 13  1  0  0  0
 13 14  1  0  0  0
 14 15  2  0  0  0
 14 16  1  0  0  0
 16 17  2  0  0  0
  8  9  1  0  0  0
  9 10  2  0  0  0
 25 20  1  0  0  0
 10  5  1  0  0  0
 17 11  1  0  0  0
  1  4  1  0  0  0
 13 18  1  0  0  0
M  END
> <minimizedAffinity>
-8.92213

$$$$
OCNT-2317486


 24 26  0  0  0  0  0  0  0  0999 V2000
   -3.7677   28.8469    5.8900 N   0  0  0  0  0  0  0  0  0  0  0  0
   -4.9883   28.2258    5.7611 C   0  0  0  0  0  0  0  0  0  0  0  0
   -5.8947   28.2457    6.5896 O   0  0  0  0  0  0  0  0  0  0  0  0
   -5.1241   27.5499    4.5668 N   0  0  0  0  0  0  0  0  0  0  0  0
   -6.1382   26.5400    4.2811 C   0  0  0  0  0  0  0  0  0  0  0  0
   -5.2715   26.1488    3.0690 C   0  0  0  0  0  0  0  0  0  0  0  0
   -4.1074   26.8907    3.7573 C   0  0  0  0  0  0  0  0  0  0  0  0
   -3.1534   28.8582    5.0892 H   0  0  0  0  0  0  0  0  0  0  0  0
   -2.3955   29.1431    7.9560 C   0  0  0  0  0  0  0  0  0  0  0  0
   -2.1796   30.0526    8.9087 N   0  0  0  0  0  0  0  0  0  0  0  0
   -2.9875   31.0687    8.5428 N   0  0  0  0  0  0  0  0  0  0  0  0
   -3.0275   32.2679    9.3435 C   0  0  0  0  0  0  0  0  0  0  0  0
   -3.7017   30.8216    7.4061 C   0  0  0  0  0  0  0  0  0  0  0  0
   -3.3359   29.5650    6.9885 C   0  0  0  0  0  0  0  0  0  0  0  0
   -0.5350   27.9415    7.2338 C   0  0  0  0  0  0  0  0  0  0  0  0
   -1.7591   27.9489    7.9592 O   0  0  0  0  0  0  0  0  0  0  0  0
   -5.1222   24.6497    2.8483 C   0  0  0  0  0  0  0  0  0  0  0  0
   -5.8892   24.2189    1.6180 C   0  0  0  0  0  0  0  0  0  0  0  0
   -6.1214   25.1711    0.6082 C   0  0  0  0  0  0  0  0  0  0  0  0
   -6.8415   24.8421   -0.5416 C   0  0  0  0  0  0  0  0  0  0  0  0
   -7.3439   23.5551   -0.7031 C   0  0  0  0  0  0  0  0  0  0  0  0
   -7.1246   22.5964    0.2846 C   0  0  0  0  0  0  0  0  0  0  0  0
   -6.4029   22.9227    1.4387 C   0  0  0  0  0  0  0  0  0  0  0  0
   -6.1556   21.5395    2.7184 Br  0  0  0  0  0  0  0  0  0  0  0  0
 15 16  1  0  0  0
 16  9  1  0  0  0
  9 10  2  0  0  0
 10 11  1  0  0  0
 11 12  1  0  0  0
 11 13  1  0  0  0
 13 14  2  0  0  0
 14  1  1  0  0  0
  1  2  1  0  0  0
  2  3  2  0  0  0
  2  4  1  0  0  0
  4  5  1  0  0  0
  5  6  1  0  0  0
  6 17  1  0  0  0
 17 18  1  0  0  0
 18 19  2  0  0  0
 19 20  1  0  0  0
 20 21  2  0  0  0
 21 22  1  0  0  0
 22 23  2  0  0  0
 23 24  1  0  0  0
  6  7  1  0  0  0
 14  9  1  0  0  0
  7  4  1  0  0  0
 23 18  1  0  0  0
  1  8  1  0  0  0
M  END
> <minimizedAffinity>
-9.03340

$$$$
OCNT-2317489


 25 28  0  0  0  0  0  0  0  0999 V2000
   -5.7492   30.2034    6.9737 O   0  0  0  0  0  0  0  0  0  0  0  0
   -4.8262   29.9087    6.2284 C   0  0  0  0  0  0  0  0  0  0  0  0
   -4.9559   29.1604    5.0875 N   0  0  0  0  0  0  0  0  0  0  0  0
   -3.5200   30.2851    6.4226 N   0  0  0  0  0  0  0  0  0  0  0  0
   -4.1297   28.6447    4.8241 H   0  0  0  0  0  0  0  0  0  0  0  0
   -2.9882   30.3925    5.5717 H   0  0  0  0  0  0  0  0  0  0  0  0
   -3.1690   31.1533    7.5335 C   0  0  0  0  0  0  0  0  0  0  0  0
   -1.7957   31.8324    7.3391 C   0  0  0  0  0  0  0  0  0  0  0  0
   -1.0103   31.3845    8.5858 C   0  0  0  0  0  0  0  0  0  0  0  0
   -1.6036   32.0719    9.8278 C   0  0  0  0  0  0  0  0  0  0  0  0
   -2.9454   31.3477   10.0170 C   0  0  0  0  0  0  0  0  0  0  0  0
   -2.9690   30.3546    8.8412 C   0  0  0  0  0  0  0  0  0  0  0  0
   -1.4955   29.9472    8.7614 C   0  0  0  0  0  0  0  0  0  0  0  0
   -6.2281   28.5728    4.7274 C   0  0  0  0  0  0  0  0  0  0  0  0
   -6.0542   27.2243    4.0897 C   0  0  0  0  0  0  0  0  0  0  0  0
   -5.7191   27.0930    2.7394 C   0  0  0  0  0  0  0  0  0  0  0  0
   -5.5823   25.8246    2.1827 C   0  0  0  0  0  0  0  0  0  0  0  0
   -5.7884   24.7228    2.9960 C   0  0  0  0  0  0  0  0  0  0  0  0
   -6.1161   24.8076    4.3032 N   0  0  0  0  0  0  0  0  0  0  0  0
   -6.2401   26.0526    4.8165 C   0  0  0  0  0  0  0  0  0  0  0  0
   -5.6412   23.4880    2.3976 O   0  0  0  0  0  0  0  0  0  0  0  0
   -6.8600   22.9769    1.8597 C   0  0  0  0  0  0  0  0  0  0  0  0
   -6.7459   22.9994    0.3633 C   0  0  0  0  0  0  0  0  0  0  0  0
   -7.4132   24.0863   -0.4404 C   0  0  0  0  0  0  0  0  0  0  0  0
   -7.9374   22.6773   -0.5022 C   0  0  0  0  0  0  0  0  0  0  0  0
  1  2  2  0  0  0
  2  3  1  0  0  0
  3 14  1  0  0  0
 14 15  1  0  0  0
 15 16  2  0  0  0
 16 17  1  0  0  0
 17 18  2  0  0  0
 18 21  1  0  0  0
 21 22  1  0  0  0
 22 23  1  0  0  0
 23 24  1  0  0  0
 24 25  1  0  0  0
 18 19  1  0  0  0
 19 20  2  0  0  0
  2  4  1  0  0  0
  4  7  1  0  0  0
  7  8  1  0  0  0
  8  9  1  0  0  0
  9 10  1  0  0  0
 10 11  1  0  0  0
 11 12  1  0  0  0
 12 13  1  0  0  0
 20 15  1  0  0  0
 12  7  1  0  0  0
 25 23  1  0  0  0
 13  9  1  0  0  0
  3  5  1  0  0  0
  4  6  1  0  0  0
M  END
> <minimizedAffinity>
-9.20995

$$$$
OCNT-2317493


 25 28  0  0  0  0  0  0  0  0999 V2000
   -5.0108   27.8861    5.4455 N   0  0  0  0  0  0  0  0  0  0  0  0
   -5.7845   26.8948    4.9185 C   0  0  0  0  0  0  0  0  0  0  0  0
   -4.9096   25.8413    4.7507 C   0  0  0  0  0  0  0  0  0  0  0  0
   -3.6526   26.2456    5.1327 N   0  0  0  0  0  0  0  0  0  0  0  0
   -3.7259   27.5024    5.5498 N   0  0  0  0  0  0  0  0  0  0  0  0
   -5.4151   29.2167    5.8532 C   0  0  0  0  0  0  0  0  0  0  0  0
   -3.0642   30.6637    8.2672 C   0  0  0  0  0  0  0  0  0  0  0  0
   -3.4783   30.5796    6.9583 C   0  0  0  0  0  0  0  0  0  0  0  0
   -4.5751   29.6850    6.9850 C   0  0  0  0  0  0  0  0  0  0  0  0
   -4.8210   29.2625    8.2318 N   0  0  0  0  0  0  0  0  0  0  0  0
   -3.8737   29.8740    9.0304 O   0  0  0  0  0  0  0  0  0  0  0  0
   -2.4155   31.7132   10.4289 C   0  0  0  0  0  0  0  0  0  0  0  0
   -1.9679   31.3968    8.9906 C   0  0  0  0  0  0  0  0  0  0  0  0
   -1.6301   32.7210    8.2808 C   0  0  0  0  0  0  0  0  0  0  0  0
   -0.6998   30.5254    9.0294 C   0  0  0  0  0  0  0  0  0  0  0  0
   -5.1541   24.4672    4.2179 C   0  0  0  0  0  0  0  0  0  0  0  0
   -4.3677   24.2337    2.9914 N   0  0  0  0  0  0  0  0  0  0  0  0
   -4.7085   22.9216    2.3693 C   0  0  0  0  0  0  0  0  0  0  0  0
   -5.6833   23.2247    1.2766 C   0  0  0  0  0  0  0  0  0  0  0  0
   -6.4686   22.3629    0.5318 C   0  0  0  0  0  0  0  0  0  0  0  0
   -7.2848   22.9094   -0.4611 C   0  0  0  0  0  0  0  0  0  0  0  0
   -7.2949   24.2940   -0.6979 C   0  0  0  0  0  0  0  0  0  0  0  0
   -6.4887   25.1509    0.0549 C   0  0  0  0  0  0  0  0  0  0  0  0
   -5.6932   24.5969    1.0420 C   0  0  0  0  0  0  0  0  0  0  0  0
   -4.7226   25.2574    1.9664 C   0  0  0  0  0  0  0  0  0  0  0  0
 12 13  1  0  0  0
 13 14  1  0  0  0
 13 15  1  0  0  0
 13  7  1  0  0  0
  7  8  2  0  0  0
  8  9  1  0  0  0
  9  6  1  0  0  0
  6  1  1  0  0  0
  1  2  1  0  0  0
  2  3  2  0  0  0
  3 16  1  0  0  0
 16 17  1  0  0  0
 17 18  1  0  0  0
 18 19  1  0  0  0
 19 20  2  0  0  0
 20 21  1  0  0  0
 21 22  2  0  0  0
 22 23  1  0  0  0
 23 24  2  0  0  0
 24 25  1  0  0  0
  3  4  1  0  0  0
  4  5  2  0  0  0
  9 10  2  0  0  0
 10 11  1  0  0  0
 11  7  1  0  0  0
  5  1  1  0  0  0
 25 17  1  0  0  0
 24 19  1  0  0  0
M  END
> <minimizedAffinity>
-9.43263

$$$$
OCNT-2317505


 23 25  0  0  0  0  0  0  0  0999 V2000
   -3.7927   26.0787    3.7973 C   0  0  0  0  0  0  0  0  0  0  0  0
   -3.0820   26.3795    2.8406 O   0  0  0  0  0  0  0  0  0  0  0  0
   -4.3832   24.8330    3.9620 N   0  0  0  0  0  0  0  0  0  0  0  0
   -5.1760   24.4479    5.1241 C   0  0  0  0  0  0  0  0  0  0  0  0
   -1.8227   26.5603    5.9790 C   0  0  0  0  0  0  0  0  0  0  0  0
   -3.1302   27.2920    5.8534 C   0  0  0  0  0  0  0  0  0  0  0  0
   -4.0354   27.0896    4.8654 C   0  0  0  0  0  0  0  0  0  0  0  0
   -5.2864   27.8463    4.8519 C   0  0  0  0  0  0  0  0  0  0  0  0
   -5.5634   28.7721    5.7872 C   0  0  0  0  0  0  0  0  0  0  0  0
   -4.6182   29.0106    6.8164 C   0  0  0  0  0  0  0  0  0  0  0  0
   -4.5360   29.8442    7.9074 C   0  0  0  0  0  0  0  0  0  0  0  0
   -3.3631   29.6443    8.5870 N   0  0  0  0  0  0  0  0  0  0  0  0
   -2.7384   28.6948    7.9242 C   0  0  0  0  0  0  0  0  0  0  0  0
   -3.4456   28.2638    6.8236 N   0  0  0  0  0  0  0  0  0  0  0  0
   -3.9912   23.7681    3.0436 C   0  0  0  0  0  0  0  0  0  0  0  0
   -5.0676   23.4691    2.0239 C   0  0  0  0  0  0  0  0  0  0  0  0
   -5.5875   22.1696    1.9028 C   0  0  0  0  0  0  0  0  0  0  0  0
   -6.5966   21.8926    0.9789 C   0  0  0  0  0  0  0  0  0  0  0  0
   -7.0938   22.9129    0.1747 C   0  0  0  0  0  0  0  0  0  0  0  0
   -8.0660   22.6256   -0.7034 F   0  0  0  0  0  0  0  0  0  0  0  0
   -6.5925   24.2076    0.2840 C   0  0  0  0  0  0  0  0  0  0  0  0
   -7.2092   25.4759   -0.7034 Cl  0  0  0  0  0  0  0  0  0  0  0  0
   -5.5819   24.4884    1.2061 C   0  0  0  0  0  0  0  0  0  0  0  0
  5  6  1  0  0  0
  6  7  2  0  0  0
  7  1  1  0  0  0
  1  2  2  0  0  0
  1  3  1  0  0  0
  3  4  1  0  0  0
  3 15  1  0  0  0
 15 16  1  0  0  0
 16 17  1  0  0  0
 17 18  2  0  0  0
 18 19  1  0  0  0
 19 20  1  0  0  0
 19 21  2  0  0  0
 21 22  1  0  0  0
 21 23  1  0  0  0
  7  8  1  0  0  0
  8  9  2  0  0  0
  9 10  1  0  0  0
 10 11  2  0  0  0
 11 12  1  0  0  0
 12 13  2  0  0  0
 13 14  1  0  0  0
 14  6  1  0  0  0
 23 16  2  0  0  0
 14 10  1  0  0  0
M  END
> <minimizedAffinity>
-8.96277

$$$$
OCNT-2317506


 25 27  0  0  0  0  0  0  0  0999 V2000
    1.4414   26.4395    3.3400 C   0  0  0  0  0  0  0  0  0  0  0  0
    0.2737   26.5692    4.2694 C   0  0  0  0  0  0  0  0  0  0  0  0
   -0.8205   25.7357    4.1451 C   0  0  0  0  0  0  0  0  0  0  0  0
   -1.8887   25.9141    5.0168 C   0  0  0  0  0  0  0  0  0  0  0  0
   -1.8640   26.9143    6.0119 C   0  0  0  0  0  0  0  0  0  0  0  0
   -0.6899   27.6787    6.1092 C   0  0  0  0  0  0  0  0  0  0  0  0
    0.3433   27.5194    5.2233 N   0  0  0  0  0  0  0  0  0  0  0  0
   -0.4638   28.6794    7.1235 N   0  0  0  0  0  0  0  0  0  0  0  0
   -1.2113   29.7962    7.4444 C   0  0  0  0  0  0  0  0  0  0  0  0
   -0.5689   30.4357    8.4723 C   0  0  0  0  0  0  0  0  0  0  0  0
   -1.0061   31.8744    9.2434 Cl  0  0  0  0  0  0  0  0  0  0  0  0
    0.5208   29.6182    8.7809 C   0  0  0  0  0  0  0  0  0  0  0  0
    0.5736   28.5325    8.0098 N   0  0  0  0  0  0  0  0  0  0  0  0
   -3.1288   27.0865    6.8132 C   0  0  0  0  0  0  0  0  0  0  0  0
   -4.2820   27.5859    6.0628 N   0  0  0  0  0  0  0  0  0  0  0  0
   -4.0417   27.5631    5.0707 H   0  0  0  0  0  0  0  0  0  0  0  0
   -4.6950   28.9559    6.3998 C   0  0  0  0  0  0  0  0  0  0  0  0
   -4.6554   29.3225    7.8755 C   0  0  0  0  0  0  0  0  0  0  0  0
   -5.5617   30.5550    7.9450 C   0  0  0  0  0  0  0  0  0  0  0  0
   -4.7739   31.8525    7.7447 C   0  0  0  0  0  0  0  0  0  0  0  0
   -6.3414   30.6141    9.2559 C   0  0  0  0  0  0  0  0  0  0  0  0
   -6.4998   30.4495    6.8541 O   0  0  0  0  0  0  0  0  0  0  0  0
   -6.1720   29.2901    6.0580 C   0  0  0  0  0  0  0  0  0  0  0  0
   -7.1684   28.1839    6.4389 C   0  0  0  0  0  0  0  0  0  0  0  0
   -6.3518   29.6535    4.5844 C   0  0  0  0  0  0  0  0  0  0  0  0
  1  2  1  0  0  0
  2  3  2  0  0  0
  3  4  1  0  0  0
  4  5  2  0  0  0
  5 14  1  0  0  0
 14 15  1  0  0  0
 15 17  1  0  0  0
 17 18  1  0  0  0
 18 19  1  0  0  0
 19 20  1  0  0  0
 19 21  1  0  0  0
 19 22  1  0  0  0
 22 23  1  0  0  0
 23 24  1  0  0  0
 23 25  1  0  0  0
  5  6  1  0  0  0
  6  8  1  0  0  0
  8  9  1  0  0  0
  9 10  2  0  0  0
 10 11  1  0  0  0
 10 12  1  0  0  0
 12 13  2  0  0  0
  6  7  2  0  0  0
  7  2  1  0  0  0
 23 17  1  0  0  0
 13  8  1  0  0  0
 15 16  1  0  0  0
M  END
> <minimizedAffinity>
-8.46242

$$$$
OCNT-2317510


 24 26  0  0  0  0  0  0  0  0999 V2000
   -5.3786   27.0484    4.0327 N   0  0  0  0  0  0  0  0  0  0  0  0
   -4.4573   27.1234    5.0542 C   0  0  0  0  0  0  0  0  0  0  0  0
   -3.6991   26.2266    5.4093 O   0  0  0  0  0  0  0  0  0  0  0  0
   -4.4378   28.3525    5.6714 N   0  0  0  0  0  0  0  0  0  0  0  0
   -5.4291   29.4109    5.7572 C   0  0  0  0  0  0  0  0  0  0  0  0
   -4.8226   29.7850    7.1261 C   0  0  0  0  0  0  0  0  0  0  0  0
   -3.7574   28.6931    6.9119 C   0  0  0  0  0  0  0  0  0  0  0  0
   -5.8085   27.9255    3.7817 H   0  0  0  0  0  0  0  0  0  0  0  0
   -6.3298   23.7914    1.5022 C   0  0  0  0  0  0  0  0  0  0  0  0
   -6.4779   23.6553    2.8862 C   0  0  0  0  0  0  0  0  0  0  0  0
   -6.1695   24.7192    3.7443 C   0  0  0  0  0  0  0  0  0  0  0  0
   -5.7028   25.9334    3.2356 C   0  0  0  0  0  0  0  0  0  0  0  0
   -5.5542   26.0706    1.8524 C   0  0  0  0  0  0  0  0  0  0  0  0
   -5.8601   25.0074    1.0057 C   0  0  0  0  0  0  0  0  0  0  0  0
   -5.6911   25.1697   -0.3147 F   0  0  0  0  0  0  0  0  0  0  0  0
   -7.8450   22.9390   -0.3017 C   0  0  0  0  0  0  0  0  0  0  0  0
   -6.6385   22.6466    0.5764 C   0  0  0  0  0  0  0  0  0  0  0  0
   -5.8488   29.5062    8.2610 C   0  0  0  0  0  0  0  0  0  0  0  0
   -5.2910   29.2142    9.6739 C   0  0  0  0  0  0  0  0  0  0  0  0
   -6.4478   30.0796   10.2208 C   0  0  0  0  0  0  0  0  0  0  0  0
   -6.4721   30.7924    8.8514 C   0  0  0  0  0  0  0  0  0  0  0  0
   -4.2291   31.1922    7.1715 C   0  0  0  0  0  0  0  0  0  0  0  0
   -3.1004   31.1866    8.0476 O   0  0  0  0  0  0  0  0  0  0  0  0
   -3.0891   32.3266    8.8973 C   0  0  0  0  0  0  0  0  0  0  0  0
 16 17  1  0  0  0
 17  9  1  0  0  0
  9 10  1  0  0  0
 10 11  2  0  0  0
 11 12  1  0  0  0
 12  1  1  0  0  0
  1  2  1  0  0  0
  2  3  2  0  0  0
  2  4  1  0  0  0
  4  5  1  0  0  0
  5  6  1  0  0  0
  6 22  1  0  0  0
 22 23  1  0  0  0
 23 24  1  0  0  0
  6 18  1  0  0  0
 18 19  1  0  0  0
 19 20  1  0  0  0
 20 21  1  0  0  0
  6  7  1  0  0  0
 12 13  2  0  0  0
 13 14  1  0  0  0
 14 15  1  0  0  0
 14  9  2  0  0  0
  7  4  1  0  0  0
 21 18  1  0  0  0
  1  8  1  0  0  0
M  END
> <minimizedAffinity>
-8.23874

$$$$
OCNT-2317519


 25 28  0  0  0  0  0  0  0  0999 V2000
   -3.0444   26.4340    5.9930 N   0  0  0  0  0  0  0  0  0  0  0  0
   -2.8585   25.7551    6.7225 H   0  0  0  0  0  0  0  0  0  0  0  0
   -0.8431   29.1508    6.9020 C   0  0  0  0  0  0  0  0  0  0  0  0
   -1.2784   27.9321    6.5259 N   0  0  0  0  0  0  0  0  0  0  0  0
   -2.5987   27.7102    6.3532 C   0  0  0  0  0  0  0  0  0  0  0  0
   -3.4861   28.7863    6.5447 C   0  0  0  0  0  0  0  0  0  0  0  0
   -4.9130   28.9207    6.4272 C   0  0  0  0  0  0  0  0  0  0  0  0
   -5.3528   30.1921    6.7255 C   0  0  0  0  0  0  0  0  0  0  0  0
   -4.0608   31.2297    7.1460 S   0  0  0  0  0  0  0  0  0  0  0  0
   -2.9127   29.9879    6.9270 C   0  0  0  0  0  0  0  0  0  0  0  0
   -1.6079   30.2248    7.1286 N   0  0  0  0  0  0  0  0  0  0  0  0
    0.9623   29.2819    8.6194 C   0  0  0  0  0  0  0  0  0  0  0  0
    0.6361   29.2989    7.1344 C   0  0  0  0  0  0  0  0  0  0  0  0
   -2.6346   25.9878    4.6555 C   0  0  0  0  0  0  0  0  0  0  0  0
   -3.7107   25.8290    3.6308 C   0  0  0  0  0  0  0  0  0  0  0  0
   -4.0271   24.7989    2.8780 N   0  0  0  0  0  0  0  0  0  0  0  0
   -5.1123   25.2668    2.1689 C   0  0  0  0  0  0  0  0  0  0  0  0
   -5.4315   26.5430    2.4434 N   0  0  0  0  0  0  0  0  0  0  0  0
   -4.5051   26.9162    3.4136 O   0  0  0  0  0  0  0  0  0  0  0  0
   -5.8281   24.4343    1.2106 C   0  0  0  0  0  0  0  0  0  0  0  0
   -6.5747   25.0019    0.1746 C   0  0  0  0  0  0  0  0  0  0  0  0
   -7.2339   24.1583   -0.7033 C   0  0  0  0  0  0  0  0  0  0  0  0
   -7.1991   22.8120   -0.6189 N   0  0  0  0  0  0  0  0  0  0  0  0
   -6.4745   22.2835    0.3893 C   0  0  0  0  0  0  0  0  0  0  0  0
   -5.7809   23.0416    1.3165 C   0  0  0  0  0  0  0  0  0  0  0  0
 12 13  1  0  0  0
 13  3  1  0  0  0
  3  4  2  0  0  0
  4  5  1  0  0  0
  5  1  1  0  0  0
  1 14  1  0  0  0
 14 15  1  0  0  0
 15 16  2  0  0  0
 16 17  1  0  0  0
 17 20  1  0  0  0
 20 21  2  0  0  0
 21 22  1  0  0  0
 22 23  2  0  0  0
 23 24  1  0  0  0
 24 25  2  0  0  0
 17 18  2  0  0  0
 18 19  1  0  0  0
  5  6  2  0  0  0
  6  7  1  0  0  0
  7  8  2  0  0  0
  8  9  1  0  0  0
  9 10  1  0  0  0
 10 11  2  0  0  0
 11  3  1  0  0  0
 19 15  1  0  0  0
 10  6  1  0  0  0
 25 20  1  0  0  0
  1  2  1  0  0  0
M  END
> <minimizedAffinity>
-8.78767

$$$$
OCNT-2317520


 28 31  0  0  0  0  0  0  0  0999 V2000
   -2.0189   26.2192    6.2806 O   0  0  0  0  0  0  0  0  0  0  0  0
   -2.7859   27.1706    6.1650 C   0  0  0  0  0  0  0  0  0  0  0  0
   -3.8115   27.1783    5.2501 N   0  0  0  0  0  0  0  0  0  0  0  0
   -2.6950   28.3233    6.9386 N   0  0  0  0  0  0  0  0  0  0  0  0
   -1.6470   28.3413    7.9569 C   0  0  0  0  0  0  0  0  0  0  0  0
   -1.1739   29.7621    8.2511 C   0  0  0  0  0  0  0  0  0  0  0  0
   -2.3304   30.6810    8.5301 C   0  0  0  0  0  0  0  0  0  0  0  0
   -2.1374   31.8669    9.2458 C   0  0  0  0  0  0  0  0  0  0  0  0
   -0.9188   32.1728    9.7124 F   0  0  0  0  0  0  0  0  0  0  0  0
   -3.1896   32.7455    9.4890 C   0  0  0  0  0  0  0  0  0  0  0  0
   -4.4602   32.4455    9.0037 C   0  0  0  0  0  0  0  0  0  0  0  0
   -4.6572   31.2732    8.2783 C   0  0  0  0  0  0  0  0  0  0  0  0
   -5.8839   30.9992    7.8124 F   0  0  0  0  0  0  0  0  0  0  0  0
   -3.6068   30.3838    8.0239 C   0  0  0  0  0  0  0  0  0  0  0  0
   -3.8832   29.1290    7.2370 C   0  0  0  0  0  0  0  0  0  0  0  0
   -3.9771   28.0843    4.8382 H   0  0  0  0  0  0  0  0  0  0  0  0
   -4.0269   26.0365    4.3594 C   0  0  0  0  0  0  0  0  0  0  0  0
   -3.1454   26.1502    3.1056 C   0  0  0  0  0  0  0  0  0  0  0  0
   -3.6792   25.2631    1.9874 C   0  0  0  0  0  0  0  0  0  0  0  0
   -5.0476   25.6571    1.6092 N   0  0  0  0  0  0  0  0  0  0  0  0
   -5.8175   26.4048    2.6164 C   0  0  0  0  0  0  0  0  0  0  0  0
   -5.5182   25.8899    4.0195 C   0  0  0  0  0  0  0  0  0  0  0  0
   -5.7627   24.6318    0.9549 C   0  0  0  0  0  0  0  0  0  0  0  0
   -6.7514   24.9500    0.0254 C   0  0  0  0  0  0  0  0  0  0  0  0
   -7.4606   23.9395   -0.6196 C   0  0  0  0  0  0  0  0  0  0  0  0
   -7.1588   22.6331   -0.3082 C   0  0  0  0  0  0  0  0  0  0  0  0
   -6.2150   22.3194    0.5926 N   0  0  0  0  0  0  0  0  0  0  0  0
   -5.5246   23.3285    1.2258 N   0  0  0  0  0  0  0  0  0  0  0  0
  1  2  2  0  0  0
  2  3  1  0  0  0
  3 17  1  0  0  0
 17 18  1  0  0  0
 18 19  1  0  0  0
 19 20  1  0  0  0
 20 23  1  0  0  0
 23 24  2  0  0  0
 24 25  1  0  0  0
 25 26  2  0  0  0
 26 27  1  0  0  0
 27 28  2  0  0  0
 20 21  1  0  0  0
 21 22  1  0  0  0
  2  4  1  0  0  0
  4  5  1  0  0  0
  5  6  1  0  0  0
  6  7  1  0  0  0
  7  8  2  0  0  0
  8  9  1  0  0  0
  8 10  1  0  0  0
 10 11  2  0  0  0
 11 12  1  0  0  0
 12 13  1  0  0  0
 12 14  2  0  0  0
 14 15  1  0  0  0
 22 17  1  0  0  0
 15  4  1  0  0  0
 28 23  1  0  0  0
 14  7  1  0  0  0
  3 16  1  0  0  0
M  END
> <minimizedAffinity>
-11.27356

$$$$
OCNT-2317521


 26 28  0  0  0  0  0  0  0  0999 V2000
   -6.2568   27.6644    5.1873 N   0  0  0  0  0  0  0  0  0  0  0  0
   -5.7102   26.4376    4.9746 C   0  0  0  0  0  0  0  0  0  0  0  0
   -5.1726   26.5250    3.7049 C   0  0  0  0  0  0  0  0  0  0  0  0
   -5.4386   27.7752    3.1981 N   0  0  0  0  0  0  0  0  0  0  0  0
   -6.0947   28.4673    4.1183 N   0  0  0  0  0  0  0  0  0  0  0  0
   -4.4482   25.5084    2.8871 C   0  0  0  0  0  0  0  0  0  0  0  0
   -3.3970   26.0924    2.1176 O   0  0  0  0  0  0  0  0  0  0  0  0
   -2.8175   26.5367    2.7594 H   0  0  0  0  0  0  0  0  0  0  0  0
   -5.4994   24.8681    1.9977 C   0  0  0  0  0  0  0  0  0  0  0  0
   -6.2937   23.7959    2.4455 C   0  0  0  0  0  0  0  0  0  0  0  0
   -7.2493   23.2174    1.6077 C   0  0  0  0  0  0  0  0  0  0  0  0
   -7.4162   23.7053    0.3182 C   0  0  0  0  0  0  0  0  0  0  0  0
   -8.3319   23.1481   -0.4851 F   0  0  0  0  0  0  0  0  0  0  0  0
   -6.6464   24.7618   -0.1513 C   0  0  0  0  0  0  0  0  0  0  0  0
   -5.6909   25.3426    0.6848 C   0  0  0  0  0  0  0  0  0  0  0  0
   -6.9448   28.1505    6.3587 C   0  0  0  0  0  0  0  0  0  0  0  0
   -6.8737   30.4022    7.1764 O   0  0  0  0  0  0  0  0  0  0  0  0
   -6.2558   29.3713    6.9212 C   0  0  0  0  0  0  0  0  0  0  0  0
   -4.9026   29.2163    7.1581 N   0  0  0  0  0  0  0  0  0  0  0  0
   -4.4382   28.4533    6.6680 H   0  0  0  0  0  0  0  0  0  0  0  0
   -4.0694   30.3345    7.5789 C   0  0  0  0  0  0  0  0  0  0  0  0
   -3.8218   30.2666    9.0898 C   0  0  0  0  0  0  0  0  0  0  0  0
   -2.9002   31.3879    9.5617 C   0  0  0  0  0  0  0  0  0  0  0  0
   -1.5860   31.3980    8.7871 C   0  0  0  0  0  0  0  0  0  0  0  0
   -1.8219   31.4651    7.2813 C   0  0  0  0  0  0  0  0  0  0  0  0
   -2.7441   30.3461    6.8044 C   0  0  0  0  0  0  0  0  0  0  0  0
 17 18  2  0  0  0
 18 16  1  0  0  0
 16  1  1  0  0  0
  1  2  1  0  0  0
  2  3  2  0  0  0
  3  6  1  0  0  0
  6  7  1  0  0  0
  6  9  1  0  0  0
  9 10  1  0  0  0
 10 11  2  0  0  0
 11 12  1  0  0  0
 12 13  1  0  0  0
 12 14  2  0  0  0
 14 15  1  0  0  0
  3  4  1  0  0  0
  4  5  2  0  0  0
 18 19  1  0  0  0
 19 21  1  0  0  0
 21 22  1  0  0  0
 22 23  1  0  0  0
 23 24  1  0  0  0
 24 25  1  0  0  0
 25 26  1  0  0  0
  5  1  1  0  0  0
 26 21  1  0  0  0
 15  9  2  0  0  0
  7  8  1  0  0  0
 19 20  1  0  0  0
M  END
> <minimizedAffinity>
-8.93485

$$$$
OCNT-2317535


 26 28  0  0  0  0  0  0  0  0999 V2000
   -4.7498   28.6242    6.8347 N   0  0  0  0  0  0  0  0  0  0  0  0
   -4.2851   29.8639    7.2299 C   0  0  0  0  0  0  0  0  0  0  0  0
   -4.9511   30.8828    7.0649 O   0  0  0  0  0  0  0  0  0  0  0  0
   -4.2281   27.7861    7.0580 H   0  0  0  0  0  0  0  0  0  0  0  0
   -2.8919   29.8679    7.8717 C   0  0  0  0  0  0  0  0  0  0  0  0
   -2.9788   30.5013    9.2738 C   0  0  0  0  0  0  0  0  0  0  0  0
   -1.8482   31.4256    9.3758 N   0  0  0  0  0  0  0  0  0  0  0  0
   -1.7094   31.9860    8.0382 C   0  0  0  0  0  0  0  0  0  0  0  0
   -1.8959   30.7848    7.1115 C   0  0  0  0  0  0  0  0  0  0  0  0
   -0.5777   30.0624    6.7944 C   0  0  0  0  0  0  0  0  0  0  0  0
   -0.0897   29.1801    7.9356 C   0  0  0  0  0  0  0  0  0  0  0  0
   -1.0712   28.2888    8.4602 O   0  0  0  0  0  0  0  0  0  0  0  0
   -2.3729   28.4220    7.8999 C   0  0  0  0  0  0  0  0  0  0  0  0
   -2.0326   32.1564   10.0618 H   0  0  0  0  0  0  0  0  0  0  0  0
   -6.0631   28.4625    6.2351 C   0  0  0  0  0  0  0  0  0  0  0  0
   -6.0036   28.4709    4.7058 C   0  0  0  0  0  0  0  0  0  0  0  0
   -5.6098   25.5626    2.2779 C   0  0  0  0  0  0  0  0  0  0  0  0
   -5.6458   26.8572    2.7982 C   0  0  0  0  0  0  0  0  0  0  0  0
   -5.9883   27.0729    4.1414 C   0  0  0  0  0  0  0  0  0  0  0  0
   -6.2853   25.9727    4.9555 C   0  0  0  0  0  0  0  0  0  0  0  0
   -6.2524   24.6734    4.4442 C   0  0  0  0  0  0  0  0  0  0  0  0
   -5.9146   24.4756    3.1055 C   0  0  0  0  0  0  0  0  0  0  0  0
   -6.3663   24.8300    0.1445 C   0  0  0  0  0  0  0  0  0  0  0  0
   -5.2922   25.2246    0.9896 O   0  0  0  0  0  0  0  0  0  0  0  0
   -6.5649   23.6962    5.3497 O   0  0  0  0  0  0  0  0  0  0  0  0
   -7.9450   23.3930    5.5135 C   0  0  0  0  0  0  0  0  0  0  0  0
 23 24  1  0  0  0
 24 17  1  0  0  0
 17 18  1  0  0  0
 18 19  2  0  0  0
 19 16  1  0  0  0
 16 15  1  0  0  0
 15  1  1  0  0  0
  1  2  1  0  0  0
  2  3  2  0  0  0
  5  2  1  0  0  0
  5  6  1  0  0  0
  6  7  1  0  0  0
  7  8  1  0  0  0
  8  9  1  0  0  0
  9 10  1  0  0  0
 10 11  1  0  0  0
 11 12  1  0  0  0
 12 13  1  0  0  0
 19 20  1  0  0  0
 20 21  2  0  0  0
 21 25  1  0  0  0
 25 26  1  0  0  0
 21 22  1  0  0  0
 22 17  2  0  0  0
  9  5  1  0  0  0
 13  5  1  0  0  0
  1  4  1  0  0  0
  7 14  1  0  0  0
M  END
> <minimizedAffinity>
-8.31042

$$$$
OCNT-2317536


 26 29  0  0  0  0  0  0  0  0999 V2000
   -1.6618   30.1999    6.7871 C   0  0  0  0  0  0  0  0  0  0  0  0
   -2.1458   31.6594    6.8935 C   0  0  0  0  0  0  0  0  0  0  0  0
   -3.6123   31.7640    6.5354 C   0  0  0  0  0  0  0  0  0  0  0  0
   -4.4041   30.8698    7.4424 C   0  0  0  0  0  0  0  0  0  0  0  0
   -5.7240   31.2262    7.7663 C   0  0  0  0  0  0  0  0  0  0  0  0
   -6.5062   30.3968    8.5648 C   0  0  0  0  0  0  0  0  0  0  0  0
   -5.9797   29.2007    9.0358 C   0  0  0  0  0  0  0  0  0  0  0  0
   -4.6729   28.8322    8.7051 C   0  0  0  0  0  0  0  0  0  0  0  0
   -3.8644   29.6567    7.9054 C   0  0  0  0  0  0  0  0  0  0  0  0
   -2.5352   29.2580    7.5274 N   0  0  0  0  0  0  0  0  0  0  0  0
   -2.2212   27.8900    7.5672 C   0  0  0  0  0  0  0  0  0  0  0  0
   -2.0134   27.2949    8.6240 O   0  0  0  0  0  0  0  0  0  0  0  0
   -2.1942   27.1919    6.2660 C   0  0  0  0  0  0  0  0  0  0  0  0
   -1.0875   26.5716    5.7087 C   0  0  0  0  0  0  0  0  0  0  0  0
   -1.4790   25.8976    4.1844 S   0  0  0  0  0  0  0  0  0  0  0  0
   -3.0781   26.4949    4.3408 C   0  0  0  0  0  0  0  0  0  0  0  0
   -3.3285   27.1481    5.4533 N   0  0  0  0  0  0  0  0  0  0  0  0
   -4.1805   26.2928    3.2629 C   0  0  0  0  0  0  0  0  0  0  0  0
   -4.2386   25.3289    2.2830 C   0  0  0  0  0  0  0  0  0  0  0  0
   -5.3925   25.5743    1.5947 N   0  0  0  0  0  0  0  0  0  0  0  0
   -5.9033   24.8372    0.4642 C   0  0  0  0  0  0  0  0  0  0  0  0
   -6.0868   26.6283    2.0641 N   0  0  0  0  0  0  0  0  0  0  0  0
   -5.3404   27.0669    3.0838 C   0  0  0  0  0  0  0  0  0  0  0  0
    0.0615   29.7854    8.6899 C   0  0  0  0  0  0  0  0  0  0  0  0
   -0.1539   30.1630    7.2200 C   0  0  0  0  0  0  0  0  0  0  0  0
    0.7296   29.2893    6.3248 C   0  0  0  0  0  0  0  0  0  0  0  0
 24 25  1  0  0  0
 25 26  1  0  0  0
 25  1  1  0  0  0
  1  2  1  0  0  0
  2  3  1  0  0  0
  3  4  1  0  0  0
  4  5  2  0  0  0
  5  6  1  0  0  0
  6  7  2  0  0  0
  7  8  1  0  0  0
  8  9  2  0  0  0
  9 10  1  0  0  0
 10 11  1  0  0  0
 11 12  2  0  0  0
 11 13  1  0  0  0
 13 14  2  0  0  0
 14 15  1  0  0  0
 15 16  1  0  0  0
 16 18  1  0  0  0
 18 19  2  0  0  0
 19 20  1  0  0  0
 20 21  1  0  0  0
 20 22  1  0  0  0
 22 23  2  0  0  0
 16 17  2  0  0  0
 10  1  1  0  0  0
 17 13  1  0  0  0
  9  4  1  0  0  0
 23 18  1  0  0  0
M  END
> <minimizedAffinity>
-9.12070

$$$$
OCNT-2317551


 26 29  0  0  0  0  0  0  0  0999 V2000
   -5.8407   28.3522    3.0555 C   0  0  0  0  0  0  0  0  0  0  0  0
   -6.1097   27.4811    4.2874 C   0  0  0  0  0  0  0  0  0  0  0  0
   -6.2958   28.3439    5.5687 C   0  0  0  0  0  0  0  0  0  0  0  0
   -4.9968   28.9361    5.9884 N   0  0  0  0  0  0  0  0  0  0  0  0
   -3.9449   27.9105    6.2151 C   0  0  0  0  0  0  0  0  0  0  0  0
   -3.7525   27.0793    4.9312 C   0  0  0  0  0  0  0  0  0  0  0  0
   -5.0286   26.4845    4.5001 N   0  0  0  0  0  0  0  0  0  0  0  0
   -5.2741   25.1675    4.9007 C   0  0  0  0  0  0  0  0  0  0  0  0
   -4.4206   24.5072    5.5013 O   0  0  0  0  0  0  0  0  0  0  0  0
   -5.1475   29.8284    7.0797 C   0  0  0  0  0  0  0  0  0  0  0  0
   -6.3248   29.8578    7.8476 C   0  0  0  0  0  0  0  0  0  0  0  0
   -6.4673   30.7455    8.9127 C   0  0  0  0  0  0  0  0  0  0  0  0
   -5.4343   31.6232    9.2280 C   0  0  0  0  0  0  0  0  0  0  0  0
   -4.2468   31.6212    8.4787 C   0  0  0  0  0  0  0  0  0  0  0  0
   -3.1886   32.4889    8.7641 C   0  0  0  0  0  0  0  0  0  0  0  0
   -2.0214   32.5359    8.0818 N   0  0  0  0  0  0  0  0  0  0  0  0
   -1.8962   31.6699    7.0577 C   0  0  0  0  0  0  0  0  0  0  0  0
   -2.8790   30.7669    6.6859 C   0  0  0  0  0  0  0  0  0  0  0  0
   -4.0909   30.7255    7.3988 C   0  0  0  0  0  0  0  0  0  0  0  0
   -6.6596   24.5537    4.5758 C   0  0  0  0  0  0  0  0  0  0  0  0
   -6.5226   23.4131    3.5540 C   0  0  0  0  0  0  0  0  0  0  0  0
   -7.8706   22.7521    3.2815 C   0  0  0  0  0  0  0  0  0  0  0  0
   -8.5258   22.3161    4.5876 C   0  0  0  0  0  0  0  0  0  0  0  0
   -8.5801   23.4671    5.5894 C   0  0  0  0  0  0  0  0  0  0  0  0
   -7.2570   24.0448    5.8367 N   0  0  0  0  0  0  0  0  0  0  0  0
   -6.6389   23.3120    6.1951 H   0  0  0  0  0  0  0  0  0  0  0  0
  1  2  1  0  0  0
  2  3  1  0  0  0
  3  4  1  0  0  0
  4 10  1  0  0  0
 10 11  2  0  0  0
 11 12  1  0  0  0
 12 13  2  0  0  0
 13 14  1  0  0  0
 14 15  2  0  0  0
 15 16  1  0  0  0
 16 17  2  0  0  0
 17 18  1  0  0  0
 18 19  2  0  0  0
  4  5  1  0  0  0
  5  6  1  0  0  0
  6  7  1  0  0  0
  7  8  1  0  0  0
  8  9  2  0  0  0
  8 20  1  0  0  0
 20 21  1  0  0  0
 21 22  1  0  0  0
 22 23  1  0  0  0
 23 24  1  0  0  0
 24 25  1  0  0  0
  7  2  1  0  0  0
 25 20  1  0  0  0
 19 10  1  0  0  0
 19 14  1  0  0  0
 25 26  1  0  0  0
M  END
> <minimizedAffinity>
-9.03504

$$$$
OCNT-2317552


 30 32  0  0  0  0  0  0  0  0999 V2000
   -3.0897   25.8081    3.9807 C   0  0  0  0  0  0  0  0  0  0  0  0
   -1.5606   26.0781    6.2775 O   0  0  0  0  0  0  0  0  0  0  0  0
   -2.2677   27.0209    5.9372 C   0  0  0  0  0  0  0  0  0  0  0  0
   -3.0886   26.9804    4.8384 N   0  0  0  0  0  0  0  0  0  0  0  0
   -2.3056   28.2142    6.6366 N   0  0  0  0  0  0  0  0  0  0  0  0
   -3.3015   29.2726    6.4458 C   0  0  0  0  0  0  0  0  0  0  0  0
   -3.6636   29.9431    7.7651 C   0  0  0  0  0  0  0  0  0  0  0  0
   -2.4484   30.5620    8.4611 C   0  0  0  0  0  0  0  0  0  0  0  0
   -2.7131   30.5978    9.8717 O   0  0  0  0  0  0  0  0  0  0  0  0
   -1.1350   29.8377    8.1287 C   0  0  0  0  0  0  0  0  0  0  0  0
   -0.5304   30.4900    7.0942 F   0  0  0  0  0  0  0  0  0  0  0  0
   -0.2827   29.9433    9.1827 F   0  0  0  0  0  0  0  0  0  0  0  0
   -1.3505   28.3811    7.7428 C   0  0  0  0  0  0  0  0  0  0  0  0
   -3.1141   27.8610    4.3489 H   0  0  0  0  0  0  0  0  0  0  0  0
   -1.8648   30.7978   10.3145 H   0  0  0  0  0  0  0  0  0  0  0  0
   -4.3253   25.7231    3.0634 C   0  0  0  0  0  0  0  0  0  0  0  0
   -5.6642   25.8009    3.8336 C   0  0  0  0  0  0  0  0  0  0  0  0
   -6.0355   27.1921    4.2910 C   0  0  0  0  0  0  0  0  0  0  0  0
   -5.9175   28.2813    3.4163 C   0  0  0  0  0  0  0  0  0  0  0  0
   -6.2511   29.5688    3.8385 C   0  0  0  0  0  0  0  0  0  0  0  0
   -6.7104   29.7804    5.1366 C   0  0  0  0  0  0  0  0  0  0  0  0
   -6.8416   28.7041    6.0116 C   0  0  0  0  0  0  0  0  0  0  0  0
   -6.5092   27.4151    5.5910 C   0  0  0  0  0  0  0  0  0  0  0  0
   -4.2493   24.4373    2.2070 C   0  0  0  0  0  0  0  0  0  0  0  0
   -5.4391   24.2423    1.2960 C   0  0  0  0  0  0  0  0  0  0  0  0
   -6.2185   23.0806    1.3842 C   0  0  0  0  0  0  0  0  0  0  0  0
   -7.3125   22.8957    0.5376 C   0  0  0  0  0  0  0  0  0  0  0  0
   -7.6392   23.8699   -0.4034 C   0  0  0  0  0  0  0  0  0  0  0  0
   -6.8739   25.0306   -0.4971 C   0  0  0  0  0  0  0  0  0  0  0  0
   -5.7796   25.2176    0.3490 C   0  0  0  0  0  0  0  0  0  0  0  0
  2  3  2  0  0  0
  3  4  1  0  0  0
  4  1  1  0  0  0
  1 16  1  0  0  0
 16 17  1  0  0  0
 17 18  1  0  0  0
 18 19  2  0  0  0
 19 20  1  0  0  0
 20 21  2  0  0  0
 21 22  1  0  0  0
 22 23  2  0  0  0
 16 24  1  0  0  0
 24 25  1  0  0  0
 25 26  2  0  0  0
 26 27  1  0  0  0
 27 28  2  0  0  0
 28 29  1  0  0  0
 29 30  2  0  0  0
  3  5  1  0  0  0
  5  6  1  0  0  0
  6  7  1  0  0  0
  7  8  1  0  0  0
  8  9  1  0  0  0
  8 10  1  0  0  0
 10 11  1  0  0  0
 10 12  1  0  0  0
 10 13  1  0  0  0
 23 18  1  0  0  0
 30 25  1  0  0  0
 13  5  1  0  0  0
  4 14  1  0  0  0
  9 15  1  0  0  0
M  END
> <minimizedAffinity>
-11.10290

$$$$
OCNT-2317570


 25 27  0  0  0  0  0  0  0  0999 V2000
   -4.4098   26.8088    4.4365 C   0  0  0  0  0  0  0  0  0  0  0  0
   -5.2053   27.7272    4.2377 O   0  0  0  0  0  0  0  0  0  0  0  0
   -3.3616   26.9428    5.3434 N   0  0  0  0  0  0  0  0  0  0  0  0
   -2.2908   25.9623    5.5348 C   0  0  0  0  0  0  0  0  0  0  0  0
   -0.9662   26.6447    5.8576 C   0  0  0  0  0  0  0  0  0  0  0  0
   -1.0440   27.5195    7.1107 C   0  0  0  0  0  0  0  0  0  0  0  0
   -2.4684   28.0102    7.4179 C   0  0  0  0  0  0  0  0  0  0  0  0
   -3.2999   28.1716    6.1402 C   0  0  0  0  0  0  0  0  0  0  0  0
   -2.4455   29.2533    8.2557 C   0  0  0  0  0  0  0  0  0  0  0  0
   -3.5018   29.8795    8.7343 N   0  0  0  0  0  0  0  0  0  0  0  0
   -3.0181   30.9484    9.4411 C   0  0  0  0  0  0  0  0  0  0  0  0
   -1.6462   30.9736    9.4024 C   0  0  0  0  0  0  0  0  0  0  0  0
   -1.2911   29.8897    8.6494 N   0  0  0  0  0  0  0  0  0  0  0  0
   -0.3478   29.6066    8.4217 H   0  0  0  0  0  0  0  0  0  0  0  0
   -4.5091   25.4820    3.6981 C   0  0  0  0  0  0  0  0  0  0  0  0
   -5.9400   24.9190    3.6282 C   0  0  0  0  0  0  0  0  0  0  0  0
   -6.5692   24.7918    5.0257 C   0  0  0  0  0  0  0  0  0  0  0  0
   -6.2084   23.5593    1.4800 C   0  0  0  0  0  0  0  0  0  0  0  0
   -6.1677   22.3429    0.7878 C   0  0  0  0  0  0  0  0  0  0  0  0
   -5.8345   21.1604    1.4499 C   0  0  0  0  0  0  0  0  0  0  0  0
   -5.5301   21.1849    2.8055 C   0  0  0  0  0  0  0  0  0  0  0  0
   -5.5651   22.3909    3.5050 C   0  0  0  0  0  0  0  0  0  0  0  0
   -5.9180   23.5923    2.8623 C   0  0  0  0  0  0  0  0  0  0  0  0
   -6.8185   24.7683   -0.4878 C   0  0  0  0  0  0  0  0  0  0  0  0
   -6.4931   24.7667    0.8955 O   0  0  0  0  0  0  0  0  0  0  0  0
 24 25  1  0  0  0
 25 18  1  0  0  0
 18 19  2  0  0  0
 19 20  1  0  0  0
 20 21  2  0  0  0
 21 22  1  0  0  0
 22 23  2  0  0  0
 23 16  1  0  0  0
 16 17  1  0  0  0
 16 15  1  0  0  0
 15  1  1  0  0  0
  1  2  2  0  0  0
  1  3  1  0  0  0
  3  4  1  0  0  0
  4  5  1  0  0  0
  5  6  1  0  0  0
  6  7  1  0  0  0
  7  9  1  0  0  0
  9 10  2  0  0  0
 10 11  1  0  0  0
 11 12  2  0  0  0
 12 13  1  0  0  0
  7  8  1  0  0  0
 23 18  1  0  0  0
  8  3  1  0  0  0
 13  9  1  0  0  0
 13 14  1  0  0  0
M  END
> <minimizedAffinity>
-8.59594

$$$$
OCNT-2317579


 22 24  0  0  0  0  0  0  0  0999 V2000
   -5.4132   24.6114    1.9401 C   0  0  0  0  0  0  0  0  0  0  0  0
   -5.9679   25.4588    2.7755 N   0  0  0  0  0  0  0  0  0  0  0  0
   -4.9286   26.3258    3.0645 C   0  0  0  0  0  0  0  0  0  0  0  0
   -3.7947   26.0370    2.4052 N   0  0  0  0  0  0  0  0  0  0  0  0
   -4.1087   24.8987    1.6722 O   0  0  0  0  0  0  0  0  0  0  0  0
   -5.1179   27.4641    3.9627 C   0  0  0  0  0  0  0  0  0  0  0  0
   -5.9811   28.4907    3.5461 C   0  0  0  0  0  0  0  0  0  0  0  0
   -6.1712   29.5871    4.3660 C   0  0  0  0  0  0  0  0  0  0  0  0
   -5.5715   29.7304    5.5615 N   0  0  0  0  0  0  0  0  0  0  0  0
   -4.7503   28.7261    5.9541 C   0  0  0  0  0  0  0  0  0  0  0  0
   -4.4837   27.5778    5.2112 C   0  0  0  0  0  0  0  0  0  0  0  0
   -3.6811   26.5538    5.6305 O   0  0  0  0  0  0  0  0  0  0  0  0
   -2.3107   26.8410    5.8755 C   0  0  0  0  0  0  0  0  0  0  0  0
   -6.0174   23.4123    1.2729 C   0  0  0  0  0  0  0  0  0  0  0  0
   -7.6196   22.8373   -0.6822 C   0  0  0  0  0  0  0  0  0  0  0  0
   -7.2225   23.8260    0.4084 C   0  0  0  0  0  0  0  0  0  0  0  0
   -6.2754   22.2822    2.2954 C   0  0  0  0  0  0  0  0  0  0  0  0
   -7.6629   22.1808    2.9486 C   0  0  0  0  0  0  0  0  0  0  0  0
   -8.1415   20.7661    3.2973 C   0  0  0  0  0  0  0  0  0  0  0  0
   -9.0854   20.9251    4.4926 C   0  0  0  0  0  0  0  0  0  0  0  0
   -9.2074   22.4241    4.7371 C   0  0  0  0  0  0  0  0  0  0  0  0
   -7.8868   22.9821    4.2287 C   0  0  0  0  0  0  0  0  0  0  0  0
 15 16  1  0  0  0
 16 14  1  0  0  0
 14 17  1  0  0  0
 17 18  1  0  0  0
 18 19  1  0  0  0
 19 20  1  0  0  0
 20 21  1  0  0  0
 21 22  1  0  0  0
 14  1  1  0  0  0
  1  2  2  0  0  0
  2  3  1  0  0  0
  3  6  1  0  0  0
  6  7  2  0  0  0
  7  8  1  0  0  0
  8  9  2  0  0  0
  9 10  1  0  0  0
 10 11  2  0  0  0
 11 12  1  0  0  0
 12 13  1  0  0  0
  3  4  2  0  0  0
  4  5  1  0  0  0
 22 18  1  0  0  0
  5  1  1  0  0  0
 11  6  1  0  0  0
M  END
> <minimizedAffinity>
-7.95689

$$$$
OCNT-2317589


 28 31  0  0  0  0  0  0  0  0999 V2000
   -3.2124   25.7684    5.5633 O   0  0  0  0  0  0  0  0  0  0  0  0
   -4.0114   26.6890    5.6970 C   0  0  0  0  0  0  0  0  0  0  0  0
   -3.7206   27.8338    6.3937 N   0  0  0  0  0  0  0  0  0  0  0  0
   -5.2846   26.6744    5.1456 N   0  0  0  0  0  0  0  0  0  0  0  0
   -5.9046   27.8883    4.6015 C   0  0  0  0  0  0  0  0  0  0  0  0
   -5.5096   28.0446    3.1246 C   0  0  0  0  0  0  0  0  0  0  0  0
   -5.8770   26.8851    2.3577 O   0  0  0  0  0  0  0  0  0  0  0  0
   -5.2647   25.6851    2.8857 C   0  0  0  0  0  0  0  0  0  0  0  0
   -5.6551   25.4848    4.3698 C   0  0  0  0  0  0  0  0  0  0  0  0
   -4.5251   28.2190    6.8678 H   0  0  0  0  0  0  0  0  0  0  0  0
   -5.6614   24.5231    2.0073 C   0  0  0  0  0  0  0  0  0  0  0  0
   -6.5470   24.7183    0.9345 C   0  0  0  0  0  0  0  0  0  0  0  0
   -6.9198   23.6502    0.1132 C   0  0  0  0  0  0  0  0  0  0  0  0
   -6.4162   22.3723    0.3531 C   0  0  0  0  0  0  0  0  0  0  0  0
   -5.5414   22.1628    1.4163 C   0  0  0  0  0  0  0  0  0  0  0  0
   -5.1742   23.2309    2.2321 C   0  0  0  0  0  0  0  0  0  0  0  0
   -4.3273   22.9938    3.2441 F   0  0  0  0  0  0  0  0  0  0  0  0
   -2.4480   27.9926    7.0815 C   0  0  0  0  0  0  0  0  0  0  0  0
   -1.7453   29.3268    6.7491 C   0  0  0  0  0  0  0  0  0  0  0  0
   -0.2168   29.2350    6.7118 C   0  0  0  0  0  0  0  0  0  0  0  0
    0.3275   29.1281    8.1266 C   0  0  0  0  0  0  0  0  0  0  0  0
    0.0175   30.2817    8.9136 O   0  0  0  0  0  0  0  0  0  0  0  0
   -1.2511   30.7750    8.7697 C   0  0  0  0  0  0  0  0  0  0  0  0
   -1.6218   31.7571    9.6894 C   0  0  0  0  0  0  0  0  0  0  0  0
   -2.8818   32.3496    9.6175 C   0  0  0  0  0  0  0  0  0  0  0  0
   -3.7725   31.9659    8.6181 C   0  0  0  0  0  0  0  0  0  0  0  0
   -3.4027   30.9902    7.6913 C   0  0  0  0  0  0  0  0  0  0  0  0
   -2.1374   30.3842    7.7583 C   0  0  0  0  0  0  0  0  0  0  0  0
  1  2  2  0  0  0
  2  3  1  0  0  0
  3 18  1  0  0  0
 18 19  1  0  0  0
 19 20  1  0  0  0
 20 21  1  0  0  0
 21 22  1  0  0  0
 22 23  1  0  0  0
 23 24  2  0  0  0
 24 25  1  0  0  0
 25 26  2  0  0  0
 26 27  1  0  0  0
 27 28  2  0  0  0
  2  4  1  0  0  0
  4  5  1  0  0  0
  5  6  1  0  0  0
  6  7  1  0  0  0
  7  8  1  0  0  0
  8 11  1  0  0  0
 11 12  2  0  0  0
 12 13  1  0  0  0
 13 14  2  0  0  0
 14 15  1  0  0  0
 15 16  2  0  0  0
 16 17  1  0  0  0
  8  9  1  0  0  0
 28 19  1  0  0  0
  9  4  1  0  0  0
 28 23  1  0  0  0
 16 11  1  0  0  0
  3 10  1  0  0  0
M  END
> <minimizedAffinity>
-10.72476

$$$$
OCNT-2317592


 23 24  0  0  0  0  0  0  0  0999 V2000
   -6.1712   28.6503    4.0831 C   0  0  0  0  0  0  0  0  0  0  0  0
   -6.0320   29.4118    3.1231 O   0  0  0  0  0  0  0  0  0  0  0  0
   -5.8814   27.2904    3.9922 N   0  0  0  0  0  0  0  0  0  0  0  0
   -6.0815   26.3321    5.0812 C   0  0  0  0  0  0  0  0  0  0  0  0
   -6.2348   24.9048    4.5722 C   0  0  0  0  0  0  0  0  0  0  0  0
   -5.0222   24.4601    3.7348 C   0  0  0  0  0  0  0  0  0  0  0  0
   -4.3507   25.6331    2.9994 C   0  0  0  0  0  0  0  0  0  0  0  0
   -5.3282   26.7724    2.7397 C   0  0  0  0  0  0  0  0  0  0  0  0
   -5.4364   23.3879    2.7572 C   0  0  0  0  0  0  0  0  0  0  0  0
   -5.8786   23.6297    1.5400 N   0  0  0  0  0  0  0  0  0  0  0  0
   -6.1692   22.4391    0.9046 C   0  0  0  0  0  0  0  0  0  0  0  0
   -5.9409   21.2995    1.6436 C   0  0  0  0  0  0  0  0  0  0  0  0
   -5.3399   21.7241    3.1898 S   0  0  0  0  0  0  0  0  0  0  0  0
   -6.6525   29.1581    5.4246 C   0  0  0  0  0  0  0  0  0  0  0  0
   -5.7580   29.9262    7.5010 O   0  0  0  0  0  0  0  0  0  0  0  0
   -5.6752   29.9427    6.2722 C   0  0  0  0  0  0  0  0  0  0  0  0
   -4.6569   30.5977    5.6241 N   0  0  0  0  0  0  0  0  0  0  0  0
   -4.8511   30.8585    4.6528 H   0  0  0  0  0  0  0  0  0  0  0  0
   -3.7470   31.4666    6.3729 C   0  0  0  0  0  0  0  0  0  0  0  0
   -2.3958   30.8476    6.7168 C   0  0  0  0  0  0  0  0  0  0  0  0
   -2.3917   29.5218    6.4453 F   0  0  0  0  0  0  0  0  0  0  0  0
   -1.3914   31.4132    6.0099 F   0  0  0  0  0  0  0  0  0  0  0  0
   -2.1107   30.9961    8.0309 F   0  0  0  0  0  0  0  0  0  0  0  0
 15 16  2  0  0  0
 16 14  1  0  0  0
 14  1  1  0  0  0
  1  2  2  0  0  0
  1  3  1  0  0  0
  3  4  1  0  0  0
  4  5  1  0  0  0
  5  6  1  0  0  0
  6  9  1  0  0  0
  9 10  2  0  0  0
 10 11  1  0  0  0
 11 12  2  0  0  0
 12 13  1  0  0  0
  6  7  1  0  0  0
  7  8  1  0  0  0
 16 17  1  0  0  0
 17 19  1  0  0  0
 19 20  1  0  0  0
 20 21  1  0  0  0
 20 22  1  0  0  0
 20 23  1  0  0  0
  8  3  1  0  0  0
 13  9  1  0  0  0
 17 18  1  0  0  0
M  END
> <minimizedAffinity>
-7.87729

$$$$
OCNT-2317599


 24 26  0  0  0  0  0  0  0  0999 V2000
   -6.3955   30.4987    7.1848 N   0  0  0  0  0  0  0  0  0  0  0  0
   -7.0567   31.1173    7.6651 H   0  0  0  0  0  0  0  0  0  0  0  0
   -5.8520   29.6149    8.2292 C   0  0  0  0  0  0  0  0  0  0  0  0
   -1.5789   28.0139    6.5942 C   0  0  0  0  0  0  0  0  0  0  0  0
   -2.4941   28.8388    7.3462 N   0  0  0  0  0  0  0  0  0  0  0  0
   -3.8186   28.6187    7.2436 N   0  0  0  0  0  0  0  0  0  0  0  0
   -4.3603   29.5395    8.0610 C   0  0  0  0  0  0  0  0  0  0  0  0
   -3.3675   30.3548    8.6719 C   0  0  0  0  0  0  0  0  0  0  0  0
   -3.3589   31.4342    9.5761 C   0  0  0  0  0  0  0  0  0  0  0  0
   -2.1336   31.9961    9.9545 C   0  0  0  0  0  0  0  0  0  0  0  0
   -0.9348   31.4985    9.4467 C   0  0  0  0  0  0  0  0  0  0  0  0
   -0.9208   30.4265    8.5487 C   0  0  0  0  0  0  0  0  0  0  0  0
   -2.1564   29.8744    8.1809 C   0  0  0  0  0  0  0  0  0  0  0  0
   -7.1221   29.7471    6.1468 C   0  0  0  0  0  0  0  0  0  0  0  0
   -6.3917   29.6318    4.7842 C   0  0  0  0  0  0  0  0  0  0  0  0
   -5.1203   30.2908    4.8370 O   0  0  0  0  0  0  0  0  0  0  0  0
   -4.6068   29.9680    4.0762 H   0  0  0  0  0  0  0  0  0  0  0  0
   -6.1685   28.1846    4.3846 C   0  0  0  0  0  0  0  0  0  0  0  0
   -5.8378   27.8611    3.0595 C   0  0  0  0  0  0  0  0  0  0  0  0
   -5.6362   26.5305    2.6831 C   0  0  0  0  0  0  0  0  0  0  0  0
   -5.7660   25.5151    3.6281 C   0  0  0  0  0  0  0  0  0  0  0  0
   -5.5168   23.8775    3.1630 Cl  0  0  0  0  0  0  0  0  0  0  0  0
   -6.0974   25.8176    4.9468 C   0  0  0  0  0  0  0  0  0  0  0  0
   -6.2989   27.1474    5.3236 C   0  0  0  0  0  0  0  0  0  0  0  0
  4  5  1  0  0  0
  5  6  1  0  0  0
  6  7  2  0  0  0
  7  3  1  0  0  0
  3  1  1  0  0  0
  1 14  1  0  0  0
 14 15  1  0  0  0
 15 16  1  0  0  0
 15 18  1  0  0  0
 18 19  1  0  0  0
 19 20  2  0  0  0
 20 21  1  0  0  0
 21 22  1  0  0  0
 21 23  2  0  0  0
 23 24  1  0  0  0
  7  8  1  0  0  0
  8  9  2  0  0  0
  9 10  1  0  0  0
 10 11  2  0  0  0
 11 12  1  0  0  0
 12 13  2  0  0  0
 13  5  1  0  0  0
 24 18  2  0  0  0
 13  8  1  0  0  0
  1  2  1  0  0  0
 16 17  1  0  0  0
M  END
> <minimizedAffinity>
-9.02946

$$$$
OCNT-2317600


 31 33  0  0  0  0  0  0  0  0999 V2000
   -4.2116   25.2338    3.8803 N   0  0  0  0  0  0  0  0  0  0  0  0
   -4.4550   25.2635    2.5276 C   0  0  0  0  0  0  0  0  0  0  0  0
   -3.8916   26.0265    1.7467 O   0  0  0  0  0  0  0  0  0  0  0  0
   -5.4094   24.3450    2.0786 N   0  0  0  0  0  0  0  0  0  0  0  0
   -5.7401   24.3744    0.6585 C   0  0  0  0  0  0  0  0  0  0  0  0
   -4.9155   24.8004    4.4503 H   0  0  0  0  0  0  0  0  0  0  0  0
   -1.3323   27.3431    6.1084 C   0  0  0  0  0  0  0  0  0  0  0  0
   -0.9015   26.3592    5.2232 C   0  0  0  0  0  0  0  0  0  0  0  0
   -1.8369   25.6482    4.4645 C   0  0  0  0  0  0  0  0  0  0  0  0
   -3.2029   25.9135    4.5949 C   0  0  0  0  0  0  0  0  0  0  0  0
   -3.6211   26.8855    5.5158 C   0  0  0  0  0  0  0  0  0  0  0  0
   -2.6889   27.5930    6.2777 C   0  0  0  0  0  0  0  0  0  0  0  0
   -0.4214   28.0191    6.8698 O   0  0  0  0  0  0  0  0  0  0  0  0
   -0.9433   28.2936    8.1656 C   0  0  0  0  0  0  0  0  0  0  0  0
   -1.4909   31.8531    9.3937 C   0  0  0  0  0  0  0  0  0  0  0  0
   -1.6408   30.5463    8.8029 N   0  0  0  0  0  0  0  0  0  0  0  0
   -0.5697   29.6694    8.7386 C   0  0  0  0  0  0  0  0  0  0  0  0
    0.5641   29.9795    9.0938 O   0  0  0  0  0  0  0  0  0  0  0  0
   -2.5764   30.1804    8.6895 H   0  0  0  0  0  0  0  0  0  0  0  0
   -5.9803   23.2067    2.8369 C   0  0  0  0  0  0  0  0  0  0  0  0
   -5.6305   21.8462    2.2070 C   0  0  0  0  0  0  0  0  0  0  0  0
   -6.7902   20.8593    2.2756 C   0  0  0  0  0  0  0  0  0  0  0  0
   -7.4678   20.8774    3.6447 C   0  0  0  0  0  0  0  0  0  0  0  0
   -7.9428   22.2220    3.9948 N   0  0  0  0  0  0  0  0  0  0  0  0
   -7.4808   23.3631    3.1923 C   0  0  0  0  0  0  0  0  0  0  0  0
   -9.0525   22.3422    4.8288 C   0  0  0  0  0  0  0  0  0  0  0  0
   -9.9789   21.2926    4.9650 C   0  0  0  0  0  0  0  0  0  0  0  0
  -11.0961   21.3901    5.8029 C   0  0  0  0  0  0  0  0  0  0  0  0
  -11.3168   22.5491    6.5355 C   0  0  0  0  0  0  0  0  0  0  0  0
  -10.4184   23.6030    6.4303 C   0  0  0  0  0  0  0  0  0  0  0  0
   -9.3023   23.4956    5.5904 C   0  0  0  0  0  0  0  0  0  0  0  0
 15 16  1  0  0  0
 16 17  1  0  0  0
 17 18  2  0  0  0
 17 14  1  0  0  0
 14 13  1  0  0  0
 13  7  1  0  0  0
  7  8  1  0  0  0
  8  9  2  0  0  0
  9 10  1  0  0  0
 10  1  1  0  0  0
  1  2  1  0  0  0
  2  3  2  0  0  0
  2  4  1  0  0  0
  4  5  1  0  0  0
  4 20  1  0  0  0
 20 21  1  0  0  0
 21 22  1  0  0  0
 22 23  1  0  0  0
 23 24  1  0  0  0
 24 26  1  0  0  0
 26 27  2  0  0  0
 27 28  1  0  0  0
 28 29  2  0  0  0
 29 30  1  0  0  0
 30 31  2  0  0  0
 24 25  1  0  0  0
 10 11  2  0  0  0
 11 12  1  0  0  0
 12  7  2  0  0  0
 25 20  1  0  0  0
 31 26  1  0  0  0
 16 19  1  0  0  0
  1  6  1  0  0  0
M  END
> <minimizedAffinity>
-9.02848

$$$$
OCNT-2317602


 29 32  0  0  0  0  0  0  0  0999 V2000
   -5.7882   29.8364    8.1913 C   0  0  0  0  0  0  0  0  0  0  0  0
   -6.7309   30.8441    7.9524 C   0  0  0  0  0  0  0  0  0  0  0  0
   -7.5342   30.7968    6.8153 C   0  0  0  0  0  0  0  0  0  0  0  0
   -7.4061   29.7399    5.9122 C   0  0  0  0  0  0  0  0  0  0  0  0
   -6.4792   28.7172    6.1393 C   0  0  0  0  0  0  0  0  0  0  0  0
   -5.6762   28.7704    7.2811 C   0  0  0  0  0  0  0  0  0  0  0  0
   -6.4188   27.6859    5.1892 N   0  0  0  0  0  0  0  0  0  0  0  0
   -5.3077   27.0880    4.6307 C   0  0  0  0  0  0  0  0  0  0  0  0
   -4.1334   27.3601    4.8545 O   0  0  0  0  0  0  0  0  0  0  0  0
   -7.2945   27.3052    4.8395 H   0  0  0  0  0  0  0  0  0  0  0  0
   -5.6865   26.0294    3.6736 C   0  0  0  0  0  0  0  0  0  0  0  0
   -6.1705   24.8346    4.0877 N   0  0  0  0  0  0  0  0  0  0  0  0
   -6.3837   24.1600    2.9422 N   0  0  0  0  0  0  0  0  0  0  0  0
   -6.0645   24.8711    1.8263 C   0  0  0  0  0  0  0  0  0  0  0  0
   -5.6028   26.0873    2.2571 C   0  0  0  0  0  0  0  0  0  0  0  0
   -6.7580   23.2177    2.9943 H   0  0  0  0  0  0  0  0  0  0  0  0
   -6.1805   24.3807    0.3680 C   0  0  0  0  0  0  0  0  0  0  0  0
   -6.7316   25.3102   -0.6795 C   0  0  0  0  0  0  0  0  0  0  0  0
   -7.5522   24.1462   -0.2065 C   0  0  0  0  0  0  0  0  0  0  0  0
   -4.9179   29.8747    9.4267 C   0  0  0  0  0  0  0  0  0  0  0  0
    0.8955   29.2979    6.6135 C   0  0  0  0  0  0  0  0  0  0  0  0
   -0.0197   28.9654    7.7016 N   0  0  0  0  0  0  0  0  0  0  0  0
   -1.3627   28.6571    7.1727 C   0  0  0  0  0  0  0  0  0  0  0  0
   -2.4846   28.8002    8.2173 C   0  0  0  0  0  0  0  0  0  0  0  0
   -2.5411   30.1556    8.7736 N   0  0  0  0  0  0  0  0  0  0  0  0
   -3.6802   30.7573    9.2951 C   0  0  0  0  0  0  0  0  0  0  0  0
   -3.6877   31.9499    9.6026 O   0  0  0  0  0  0  0  0  0  0  0  0
   -1.2985   30.9268    8.7101 C   0  0  0  0  0  0  0  0  0  0  0  0
   -0.0513   30.0239    8.7318 C   0  0  0  0  0  0  0  0  0  0  0  0
 21 22  1  0  0  0
 22 23  1  0  0  0
 23 24  1  0  0  0
 24 25  1  0  0  0
 25 26  1  0  0  0
 26 27  2  0  0  0
 26 20  1  0  0  0
 20  1  1  0  0  0
  1  2  2  0  0  0
  2  3  1  0  0  0
  3  4  2  0  0  0
  4  5  1  0  0  0
  5  7  1  0  0  0
  7  8  1  0  0  0
  8  9  2  0  0  0
  8 11  1  0  0  0
 11 12  2  0  0  0
 12 13  1  0  0  0
 13 14  1  0  0  0
 14 17  1  0  0  0
 17 18  1  0  0  0
 18 19  1  0  0  0
 14 15  2  0  0  0
  5  6  2  0  0  0
 25 28  1  0  0  0
 28 29  1  0  0  0
 29 22  1  0  0  0
  6  1  1  0  0  0
 15 11  1  0  0  0
 19 17  1  0  0  0
  7 10  1  0  0  0
 13 16  1  0  0  0
M  END
> <minimizedAffinity>
-9.46600

$$$$
OCNT-2317611


 31 34  0  0  0  0  0  0  0  0999 V2000
   -6.2114   24.6327    2.0390 N   0  0  0  0  0  0  0  0  0  0  0  0
   -5.7567   23.3516    2.2514 C   0  0  0  0  0  0  0  0  0  0  0  0
   -4.5710   23.0606    2.3535 O   0  0  0  0  0  0  0  0  0  0  0  0
   -7.1904   24.7620    2.2943 H   0  0  0  0  0  0  0  0  0  0  0  0
   -5.3204   25.7598    2.1585 C   0  0  0  0  0  0  0  0  0  0  0  0
   -6.3819   28.5052    5.3386 C   0  0  0  0  0  0  0  0  0  0  0  0
   -6.1141   28.9793    4.0512 C   0  0  0  0  0  0  0  0  0  0  0  0
   -5.7927   28.0972    3.0151 C   0  0  0  0  0  0  0  0  0  0  0  0
   -5.7448   26.7170    3.2440 C   0  0  0  0  0  0  0  0  0  0  0  0
   -6.0174   26.2463    4.5332 C   0  0  0  0  0  0  0  0  0  0  0  0
   -6.3395   27.1300    5.5702 C   0  0  0  0  0  0  0  0  0  0  0  0
   -5.7598   30.1504    7.1338 C   0  0  0  0  0  0  0  0  0  0  0  0
   -4.5403   30.0247    7.1318 O   0  0  0  0  0  0  0  0  0  0  0  0
   -6.6650   29.4663    6.3313 N   0  0  0  0  0  0  0  0  0  0  0  0
   -7.6415   29.7088    6.4395 H   0  0  0  0  0  0  0  0  0  0  0  0
   -6.4760   31.1392    8.0446 C   0  0  0  0  0  0  0  0  0  0  0  0
   -4.8978   33.0038    8.7434 C   0  0  0  0  0  0  0  0  0  0  0  0
   -5.5982   31.7127    9.1526 C   0  0  0  0  0  0  0  0  0  0  0  0
   -6.8724   22.2998    2.2624 C   0  0  0  0  0  0  0  0  0  0  0  0
   -6.8710   21.5503    3.5482 N   0  0  0  0  0  0  0  0  0  0  0  0
   -8.1386   20.8065    3.7366 C   0  0  0  0  0  0  0  0  0  0  0  0
   -9.1406   21.8306    4.2470 C   0  0  0  0  0  0  0  0  0  0  0  0
  -10.1265   21.3565    5.3060 C   0  0  0  0  0  0  0  0  0  0  0  0
  -10.2239   22.5410    6.1631 N   0  0  0  0  0  0  0  0  0  0  0  0
  -10.9752   22.3489    7.3981 C   0  0  0  0  0  0  0  0  0  0  0  0
  -10.2349   21.5680    8.4825 C   0  0  0  0  0  0  0  0  0  0  0  0
   -8.8630   22.1805    8.7425 C   0  0  0  0  0  0  0  0  0  0  0  0
   -8.0724   22.2605    7.4431 C   0  0  0  0  0  0  0  0  0  0  0  0
   -8.8462   23.0271    6.3547 C   0  0  0  0  0  0  0  0  0  0  0  0
   -8.2911   22.9094    4.9263 C   0  0  0  0  0  0  0  0  0  0  0  0
   -6.8451   22.4810    4.6988 C   0  0  0  0  0  0  0  0  0  0  0  0
 17 18  1  0  0  0
 18 16  1  0  0  0
 16 12  1  0  0  0
 12 13  2  0  0  0
 12 14  1  0  0  0
 14  6  1  0  0  0
  6  7  1  0  0  0
  7  8  2  0  0  0
  8  9  1  0  0  0
  9  5  1  0  0  0
  5  1  1  0  0  0
  1  2  1  0  0  0
  2  3  2  0  0  0
  2 19  1  0  0  0
 19 20  1  0  0  0
 20 21  1  0  0  0
 21 22  1  0  0  0
 22 23  1  0  0  0
 23 24  1  0  0  0
 24 25  1  0  0  0
 25 26  1  0  0  0
 26 27  1  0  0  0
 27 28  1  0  0  0
 28 29  1  0  0  0
 29 30  1  0  0  0
 30 31  1  0  0  0
  9 10  2  0  0  0
 10 11  1  0  0  0
 11  6  2  0  0  0
 31 20  1  0  0  0
 30 22  1  0  0  0
 29 24  1  0  0  0
 14 15  1  0  0  0
  1  4  1  0  0  0
M  END
> <minimizedAffinity>
-9.35672

$$$$
OCNT-2317626


 27 30  0  0  0  0  0  0  0  0999 V2000
   -5.8993   30.3108    6.9977 O   0  0  0  0  0  0  0  0  0  0  0  0
   -5.0570   30.5968    6.1550 C   0  0  0  0  0  0  0  0  0  0  0  0
   -5.1139   30.1341    4.8535 N   0  0  0  0  0  0  0  0  0  0  0  0
   -4.4693   30.5144    4.1755 H   0  0  0  0  0  0  0  0  0  0  0  0
   -3.8064   31.4234    6.4302 C   0  0  0  0  0  0  0  0  0  0  0  0
   -2.7440   30.7593    7.3581 C   0  0  0  0  0  0  0  0  0  0  0  0
   -1.5920   31.7921    7.6045 C   0  0  0  0  0  0  0  0  0  0  0  0
   -1.7270   32.2652    9.0484 C   0  0  0  0  0  0  0  0  0  0  0  0
   -2.3591   31.0951    9.7714 C   0  0  0  0  0  0  0  0  0  0  0  0
   -3.3908   30.5954    8.7712 C   0  0  0  0  0  0  0  0  0  0  0  0
   -2.2177   29.4773    6.8043 N   0  0  0  0  0  0  0  0  0  0  0  0
   -2.8419   28.2471    7.3434 C   0  0  0  0  0  0  0  0  0  0  0  0
   -2.3315   26.9857    6.6231 C   0  0  0  0  0  0  0  0  0  0  0  0
   -0.9082   26.8669    6.7241 O   0  0  0  0  0  0  0  0  0  0  0  0
   -0.2948   28.0230    6.1411 C   0  0  0  0  0  0  0  0  0  0  0  0
   -0.7465   29.3069    6.8583 C   0  0  0  0  0  0  0  0  0  0  0  0
   -6.3056   29.5000    4.3357 C   0  0  0  0  0  0  0  0  0  0  0  0
   -6.0739   28.0193    4.1689 C   0  0  0  0  0  0  0  0  0  0  0  0
   -6.0737   27.1620    5.2798 C   0  0  0  0  0  0  0  0  0  0  0  0
   -5.8225   25.7968    5.1209 C   0  0  0  0  0  0  0  0  0  0  0  0
   -5.5660   25.2794    3.8535 C   0  0  0  0  0  0  0  0  0  0  0  0
   -5.3427   23.9286    3.7723 O   0  0  0  0  0  0  0  0  0  0  0  0
   -5.4291   23.4676    2.4185 C   0  0  0  0  0  0  0  0  0  0  0  0
   -4.6613   24.3906    1.4868 C   0  0  0  0  0  0  0  0  0  0  0  0
   -5.2470   25.6969    1.4754 O   0  0  0  0  0  0  0  0  0  0  0  0
   -5.5324   26.1295    2.7449 C   0  0  0  0  0  0  0  0  0  0  0  0
   -5.7975   27.4893    2.8987 C   0  0  0  0  0  0  0  0  0  0  0  0
  1  2  2  0  0  0
  2  5  1  0  0  0
  5  6  1  0  0  0
  6 11  1  0  0  0
 11 12  1  0  0  0
 12 13  1  0  0  0
 13 14  1  0  0  0
 14 15  1  0  0  0
 15 16  1  0  0  0
  6  7  1  0  0  0
  7  8  1  0  0  0
  8  9  1  0  0  0
  9 10  1  0  0  0
  2  3  1  0  0  0
  3 17  1  0  0  0
 17 18  1  0  0  0
 18 19  1  0  0  0
 19 20  2  0  0  0
 20 21  1  0  0  0
 21 22  1  0  0  0
 22 23  1  0  0  0
 23 24  1  0  0  0
 24 25  1  0  0  0
 25 26  1  0  0  0
 26 27  1  0  0  0
 10  6  1  0  0  0
 27 18  2  0  0  0
 16 11  1  0  0  0
 26 21  2  0  0  0
  3  4  1  0  0  0
M  END
> <minimizedAffinity>
-9.48570

$$$$
OCNT-2317634


 28 31  0  0  0  0  0  0  0  0999 V2000
   -6.0363   22.6138    3.0727 C   0  0  0  0  0  0  0  0  0  0  0  0
   -5.5952   21.4688    2.1484 C   0  0  0  0  0  0  0  0  0  0  0  0
   -6.1446   21.8809    0.7881 C   0  0  0  0  0  0  0  0  0  0  0  0
   -5.9517   23.3894    0.7826 C   0  0  0  0  0  0  0  0  0  0  0  0
   -5.9667   23.7849    2.1829 N   0  0  0  0  0  0  0  0  0  0  0  0
   -5.8670   25.1202    2.5213 C   0  0  0  0  0  0  0  0  0  0  0  0
   -5.8569   25.9932    1.6519 O   0  0  0  0  0  0  0  0  0  0  0  0
   -5.6726   25.4664    3.9975 C   0  0  0  0  0  0  0  0  0  0  0  0
   -5.9280   26.9575    4.2715 C   0  0  0  0  0  0  0  0  0  0  0  0
   -5.1568   27.4263    5.5009 C   0  0  0  0  0  0  0  0  0  0  0  0
   -3.7198   27.2856    5.2626 N   0  0  0  0  0  0  0  0  0  0  0  0
   -3.2663   26.1845    4.4109 C   0  0  0  0  0  0  0  0  0  0  0  0
   -4.2668   25.0294    4.4448 C   0  0  0  0  0  0  0  0  0  0  0  0
   -2.8801   27.7873    6.2508 C   0  0  0  0  0  0  0  0  0  0  0  0
   -3.3279   28.6743    7.2399 C   0  0  0  0  0  0  0  0  0  0  0  0
   -2.5497   29.1905    8.2296 N   0  0  0  0  0  0  0  0  0  0  0  0
   -1.2732   28.7659    8.2199 C   0  0  0  0  0  0  0  0  0  0  0  0
   -0.8054   27.8777    7.2717 C   0  0  0  0  0  0  0  0  0  0  0  0
   -1.5881   27.3785    6.2862 N   0  0  0  0  0  0  0  0  0  0  0  0
   -7.4651   22.4146    3.6293 C   0  0  0  0  0  0  0  0  0  0  0  0
   -8.7319   22.1986    5.8330 C   0  0  0  0  0  0  0  0  0  0  0  0
   -8.7250   22.0519    7.2240 C   0  0  0  0  0  0  0  0  0  0  0  0
   -7.5182   21.9473    7.9198 C   0  0  0  0  0  0  0  0  0  0  0  0
   -6.3093   21.9867    7.2328 C   0  0  0  0  0  0  0  0  0  0  0  0
   -6.3041   22.1341    5.8474 C   0  0  0  0  0  0  0  0  0  0  0  0
   -7.5098   22.2467    5.1345 C   0  0  0  0  0  0  0  0  0  0  0  0
  -10.8347   21.2703    5.1863 C   0  0  0  0  0  0  0  0  0  0  0  0
   -9.8624   22.3016    5.0659 O   0  0  0  0  0  0  0  0  0  0  0  0
 27 28  1  0  0  0
 28 21  1  0  0  0
 21 22  2  0  0  0
 22 23  1  0  0  0
 23 24  2  0  0  0
 24 25  1  0  0  0
 25 26  2  0  0  0
 26 20  1  0  0  0
 20  1  1  0  0  0
  1  2  1  0  0  0
  2  3  1  0  0  0
  3  4  1  0  0  0
  4  5  1  0  0  0
  5  6  1  0  0  0
  6  7  2  0  0  0
  6  8  1  0  0  0
  8  9  1  0  0  0
  9 10  1  0  0  0
 10 11  1  0  0  0
 11 14  1  0  0  0
 14 15  2  0  0  0
 15 16  1  0  0  0
 16 17  2  0  0  0
 17 18  1  0  0  0
 18 19  2  0  0  0
 11 12  1  0  0  0
 12 13  1  0  0  0
 26 21  1  0  0  0
  5  1  1  0  0  0
 13  8  1  0  0  0
 19 14  1  0  0  0
M  END
> <minimizedAffinity>
-9.57159

$$$$
OCNT-2317648


 28 31  0  0  0  0  0  0  0  0999 V2000
   -6.9143   27.6285    5.7363 O   0  0  0  0  0  0  0  0  0  0  0  0
   -5.7030   27.4976    5.8205 C   0  0  0  0  0  0  0  0  0  0  0  0
   -4.9656   26.5388    5.1779 N   0  0  0  0  0  0  0  0  0  0  0  0
   -4.8891   28.2885    6.5940 N   0  0  0  0  0  0  0  0  0  0  0  0
   -4.0634   26.8865    4.8864 H   0  0  0  0  0  0  0  0  0  0  0  0
   -4.0645   27.8123    6.9289 H   0  0  0  0  0  0  0  0  0  0  0  0
   -5.4519   29.3070    7.4691 C   0  0  0  0  0  0  0  0  0  0  0  0
   -5.2775   28.9218    8.9495 C   0  0  0  0  0  0  0  0  0  0  0  0
   -5.2383   30.1269    9.8929 C   0  0  0  0  0  0  0  0  0  0  0  0
   -6.0316   31.3071    9.3448 C   0  0  0  0  0  0  0  0  0  0  0  0
   -5.4823   31.7952    7.9903 C   0  0  0  0  0  0  0  0  0  0  0  0
   -4.8195   30.6672    7.1767 C   0  0  0  0  0  0  0  0  0  0  0  0
   -4.5026   32.9300    8.1856 C   0  0  0  0  0  0  0  0  0  0  0  0
   -4.5760   33.7964    9.4173 C   0  0  0  0  0  0  0  0  0  0  0  0
   -4.9728   34.3587    8.0798 C   0  0  0  0  0  0  0  0  0  0  0  0
   -5.5698   25.6062    4.2221 C   0  0  0  0  0  0  0  0  0  0  0  0
   -6.1425   24.4373    4.9772 C   0  0  0  0  0  0  0  0  0  0  0  0
   -7.4095   24.0588    5.0380 N   0  0  0  0  0  0  0  0  0  0  0  0
   -7.3827   22.9589    5.8568 C   0  0  0  0  0  0  0  0  0  0  0  0
   -6.0950   22.6991    6.2484 C   0  0  0  0  0  0  0  0  0  0  0  0
   -5.2848   23.6345    5.6829 O   0  0  0  0  0  0  0  0  0  0  0  0
   -4.6726   25.2016    3.0354 C   0  0  0  0  0  0  0  0  0  0  0  0
   -5.4177   24.4677    1.9408 C   0  0  0  0  0  0  0  0  0  0  0  0
   -5.4434   23.0671    1.9060 C   0  0  0  0  0  0  0  0  0  0  0  0
   -6.1450   22.3980    0.9015 C   0  0  0  0  0  0  0  0  0  0  0  0
   -6.8247   23.1211   -0.0757 C   0  0  0  0  0  0  0  0  0  0  0  0
   -6.8043   24.5141   -0.0508 C   0  0  0  0  0  0  0  0  0  0  0  0
   -6.1041   25.1845    0.9524 C   0  0  0  0  0  0  0  0  0  0  0  0
  1  2  2  0  0  0
  2  3  1  0  0  0
  3 16  1  0  0  0
 16 22  1  0  0  0
 22 23  1  0  0  0
 23 24  2  0  0  0
 24 25  1  0  0  0
 25 26  2  0  0  0
 26 27  1  0  0  0
 27 28  2  0  0  0
 16 17  1  0  0  0
 17 18  2  0  0  0
 18 19  1  0  0  0
 19 20  2  0  0  0
 20 21  1  0  0  0
  2  4  1  0  0  0
  4  7  1  0  0  0
  7  8  1  0  0  0
  8  9  1  0  0  0
  9 10  1  0  0  0
 10 11  1  0  0  0
 11 13  1  0  0  0
 13 14  1  0  0  0
 14 15  1  0  0  0
 11 12  1  0  0  0
 28 23  1  0  0  0
 21 17  1  0  0  0
 12  7  1  0  0  0
 15 13  1  0  0  0
  3  5  1  0  0  0
  4  6  1  0  0  0
M  END
> <minimizedAffinity>
-9.46536

$$$$
OCNT-2317650


 29 32  0  0  0  0  0  0  0  0999 V2000
   -3.5647   26.3943    5.5590 O   0  0  0  0  0  0  0  0  0  0  0  0
   -2.5157   26.3961    4.9293 C   0  0  0  0  0  0  0  0  0  0  0  0
   -1.2751   26.5623    5.4929 N   0  0  0  0  0  0  0  0  0  0  0  0
   -2.4338   26.1766    3.5806 N   0  0  0  0  0  0  0  0  0  0  0  0
   -0.5647   26.9065    4.8667 H   0  0  0  0  0  0  0  0  0  0  0  0
   -1.6240   26.5390    3.0960 H   0  0  0  0  0  0  0  0  0  0  0  0
   -1.1534   26.8935    6.8996 C   0  0  0  0  0  0  0  0  0  0  0  0
   -1.1492   28.4021    7.1818 C   0  0  0  0  0  0  0  0  0  0  0  0
    0.1355   28.8683    7.8884 C   0  0  0  0  0  0  0  0  0  0  0  0
   -0.0991   30.0949    8.7697 C   0  0  0  0  0  0  0  0  0  0  0  0
   -1.1984   30.9922    8.2082 C   0  0  0  0  0  0  0  0  0  0  0  0
   -2.4945   30.3160    8.0478 N   0  0  0  0  0  0  0  0  0  0  0  0
   -2.3957   28.8490    7.9593 C   0  0  0  0  0  0  0  0  0  0  0  0
   -3.4741   30.6993    9.0798 C   0  0  0  0  0  0  0  0  0  0  0  0
   -4.0301   32.0816    8.8597 C   0  0  0  0  0  0  0  0  0  0  0  0
   -4.0593   33.1490    9.7378 C   0  0  0  0  0  0  0  0  0  0  0  0
   -4.6544   34.3099    9.1675 C   0  0  0  0  0  0  0  0  0  0  0  0
   -5.0565   34.0944    7.8693 C   0  0  0  0  0  0  0  0  0  0  0  0
   -4.7162   32.5020    7.3455 S   0  0  0  0  0  0  0  0  0  0  0  0
   -3.6392   26.0929    2.7744 C   0  0  0  0  0  0  0  0  0  0  0  0
   -4.0061   24.6309    2.4952 C   0  0  0  0  0  0  0  0  0  0  0  0
   -5.1703   24.1445    3.3441 C   0  0  0  0  0  0  0  0  0  0  0  0
   -6.3665   24.4172    2.4628 C   0  0  0  0  0  0  0  0  0  0  0  0
   -5.8046   24.1569    1.0696 C   0  0  0  0  0  0  0  0  0  0  0  0
   -5.9530   22.7022    0.6166 C   0  0  0  0  0  0  0  0  0  0  0  0
   -7.3599   22.6163    0.0304 C   0  0  0  0  0  0  0  0  0  0  0  0
   -7.7611   24.0491   -0.3256 C   0  0  0  0  0  0  0  0  0  0  0  0
   -6.5339   24.9052   -0.0406 C   0  0  0  0  0  0  0  0  0  0  0  0
   -4.4207   24.5192    1.1137 O   0  0  0  0  0  0  0  0  0  0  0  0
  1  2  2  0  0  0
  2  3  1  0  0  0
  3  7  1  0  0  0
  7  8  1  0  0  0
  8  9  1  0  0  0
  9 10  1  0  0  0
 10 11  1  0  0  0
 11 12  1  0  0  0
 12 14  1  0  0  0
 14 15  1  0  0  0
 15 16  2  0  0  0
 16 17  1  0  0  0
 17 18  2  0  0  0
 18 19  1  0  0  0
 12 13  1  0  0  0
  2  4  1  0  0  0
  4 20  1  0  0  0
 20 21  1  0  0  0
 21 22  1  0  0  0
 22 23  1  0  0  0
 23 24  1  0  0  0
 24 25  1  0  0  0
 25 26  1  0  0  0
 26 27  1  0  0  0
 27 28  1  0  0  0
 24 29  1  0  0  0
 13  8  1  0  0  0
 29 21  1  0  0  0
 19 15  1  0  0  0
 28 24  1  0  0  0
  3  5  1  0  0  0
  4  6  1  0  0  0
M  END
> <minimizedAffinity>
-9.94016

$$$$
OCNT-2317654


 29 31  0  0  0  0  0  0  0  0999 V2000
   -6.3796   28.2974    4.2845 N   0  0  0  0  0  0  0  0  0  0  0  0
   -5.4154   28.1888    3.1751 C   0  0  0  0  0  0  0  0  0  0  0  0
   -4.8065   26.7867    3.0177 C   0  0  0  0  0  0  0  0  0  0  0  0
   -5.7936   25.6975    3.4580 C   0  0  0  0  0  0  0  0  0  0  0  0
   -6.1746   25.9289    4.9370 C   0  0  0  0  0  0  0  0  0  0  0  0
   -6.0341   27.3901    5.3806 C   0  0  0  0  0  0  0  0  0  0  0  0
   -5.2407   24.2811    3.1873 C   0  0  0  0  0  0  0  0  0  0  0  0
   -5.4625   23.4313    4.3157 O   0  0  0  0  0  0  0  0  0  0  0  0
   -4.8058   23.6759    4.9883 H   0  0  0  0  0  0  0  0  0  0  0  0
   -5.8110   23.6552    1.9259 C   0  0  0  0  0  0  0  0  0  0  0  0
   -5.6302   22.2973    1.6231 C   0  0  0  0  0  0  0  0  0  0  0  0
   -6.1717   21.7439    0.4611 C   0  0  0  0  0  0  0  0  0  0  0  0
   -6.9039   22.5409   -0.4145 C   0  0  0  0  0  0  0  0  0  0  0  0
   -7.0936   23.8912   -0.1306 C   0  0  0  0  0  0  0  0  0  0  0  0
   -6.5491   24.4458    1.0297 C   0  0  0  0  0  0  0  0  0  0  0  0
   -6.5136   29.6920    4.7689 C   0  0  0  0  0  0  0  0  0  0  0  0
   -6.7274   29.8343    6.3033 C   0  0  0  0  0  0  0  0  0  0  0  0
   -7.7810   30.7625    6.5919 O   0  0  0  0  0  0  0  0  0  0  0  0
   -7.7158   30.9676    7.5405 H   0  0  0  0  0  0  0  0  0  0  0  0
   -3.1682   31.1925    8.3375 C   0  0  0  0  0  0  0  0  0  0  0  0
   -4.2814   30.8033    9.0866 C   0  0  0  0  0  0  0  0  0  0  0  0
   -5.4292   30.3587    8.4287 C   0  0  0  0  0  0  0  0  0  0  0  0
   -5.4810   30.3194    7.0237 C   0  0  0  0  0  0  0  0  0  0  0  0
   -4.3542   30.7258    6.2890 C   0  0  0  0  0  0  0  0  0  0  0  0
   -3.2008   31.1665    6.9420 C   0  0  0  0  0  0  0  0  0  0  0  0
   -0.5878   30.4017    9.0237 C   0  0  0  0  0  0  0  0  0  0  0  0
   -1.7115   31.7663    9.1781 S   0  0  0  0  0  0  0  0  0  0  0  0
   -2.0530   31.9176   10.5797 O   0  0  0  0  0  0  0  0  0  0  0  0
   -1.1706   32.8772    8.4179 O   0  0  0  0  0  0  0  0  0  0  0  0
 26 27  1  0  0  0
 27 28  2  0  0  0
 27 29  2  0  0  0
 27 20  1  0  0  0
 20 21  1  0  0  0
 21 22  2  0  0  0
 22 23  1  0  0  0
 23 17  1  0  0  0
 17 18  1  0  0  0
 17 16  1  0  0  0
 16  1  1  0  0  0
  1  2  1  0  0  0
  2  3  1  0  0  0
  3  4  1  0  0  0
  4  7  1  0  0  0
  7  8  1  0  0  0
  7 10  1  0  0  0
 10 11  2  0  0  0
 11 12  1  0  0  0
 12 13  2  0  0  0
 13 14  1  0  0  0
 14 15  2  0  0  0
  4  5  1  0  0  0
  5  6  1  0  0  0
 23 24  2  0  0  0
 24 25  1  0  0  0
 25 20  2  0  0  0
  6  1  1  0  0  0
 15 10  1  0  0  0
 18 19  1  0  0  0
  8  9  1  0  0  0
M  END
> <minimizedAffinity>
-9.25499

$$$$
OCNT-2317662


 28 30  0  0  0  0  0  0  0  0999 V2000
   -5.4832   28.2799    6.6271 N   0  0  0  0  0  0  0  0  0  0  0  0
   -5.2957   29.5401    7.1279 C   0  0  0  0  0  0  0  0  0  0  0  0
   -5.9251   30.5091    6.7112 O   0  0  0  0  0  0  0  0  0  0  0  0
   -4.3250   29.6488    8.1166 N   0  0  0  0  0  0  0  0  0  0  0  0
   -4.0570   30.9821    8.6308 C   0  0  0  0  0  0  0  0  0  0  0  0
   -3.2105   31.8541    7.7063 C   0  0  0  0  0  0  0  0  0  0  0  0
   -2.2043   31.1560    6.7860 C   0  0  0  0  0  0  0  0  0  0  0  0
   -1.3297   30.0336    7.3876 C   0  0  0  0  0  0  0  0  0  0  0  0
   -0.6605   30.4323    8.7128 C   0  0  0  0  0  0  0  0  0  0  0  0
    0.5524   29.5159    8.8377 C   0  0  0  0  0  0  0  0  0  0  0  0
    0.9715   29.1818    7.4088 C   0  0  0  0  0  0  0  0  0  0  0  0
   -0.0795   29.8162    6.4982 C   0  0  0  0  0  0  0  0  0  0  0  0
   -2.1163   28.6926    7.4597 C   0  0  0  0  0  0  0  0  0  0  0  0
   -3.3046   28.6486    8.4182 C   0  0  0  0  0  0  0  0  0  0  0  0
   -5.2704   27.5123    7.2363 H   0  0  0  0  0  0  0  0  0  0  0  0
   -6.4926   28.0207    5.6221 C   0  0  0  0  0  0  0  0  0  0  0  0
   -5.3616   24.9125    2.7756 C   0  0  0  0  0  0  0  0  0  0  0  0
   -5.7810   24.5749    4.0645 C   0  0  0  0  0  0  0  0  0  0  0  0
   -6.1491   25.5583    4.9952 C   0  0  0  0  0  0  0  0  0  0  0  0
   -6.1501   26.9145    4.6492 C   0  0  0  0  0  0  0  0  0  0  0  0
   -5.7658   27.2549    3.3468 C   0  0  0  0  0  0  0  0  0  0  0  0
   -5.3976   26.2680    2.4247 C   0  0  0  0  0  0  0  0  0  0  0  0
   -5.0513   23.9737    1.7837 N   0  0  0  0  0  0  0  0  0  0  0  0
   -4.4832   23.2201    2.1744 H   0  0  0  0  0  0  0  0  0  0  0  0
   -6.1119   23.4069    0.9453 C   0  0  0  0  0  0  0  0  0  0  0  0
   -6.0923   21.8703    0.9824 C   0  0  0  0  0  0  0  0  0  0  0  0
   -6.9362   21.1329    3.0879 C   0  0  0  0  0  0  0  0  0  0  0  0
   -5.7857   21.3587    2.2863 O   0  0  0  0  0  0  0  0  0  0  0  0
 27 28  1  0  0  0
 28 26  1  0  0  0
 26 25  1  0  0  0
 25 23  1  0  0  0
 23 17  1  0  0  0
 17 18  1  0  0  0
 18 19  2  0  0  0
 19 20  1  0  0  0
 20 16  1  0  0  0
 16  1  1  0  0  0
  1  2  1  0  0  0
  2  3  2  0  0  0
  2  4  1  0  0  0
  4  5  1  0  0  0
  5  6  1  0  0  0
  6  7  1  0  0  0
  7  8  1  0  0  0
  8  9  1  0  0  0
  9 10  1  0  0  0
 10 11  1  0  0  0
 11 12  1  0  0  0
  8 13  1  0  0  0
 13 14  1  0  0  0
 20 21  2  0  0  0
 21 22  1  0  0  0
 22 17  2  0  0  0
 14  4  1  0  0  0
 12  8  1  0  0  0
 23 24  1  0  0  0
  1 15  1  0  0  0
M  END
> <minimizedAffinity>
-9.39881

$$$$
OCNT-2317667


 25 28  0  0  0  0  0  0  0  0999 V2000
   -2.8078   27.8734    6.5528 C   0  0  0  0  0  0  0  0  0  0  0  0
   -2.0263   27.2699    7.2899 O   0  0  0  0  0  0  0  0  0  0  0  0
   -3.4022   27.2558    5.4608 N   0  0  0  0  0  0  0  0  0  0  0  0
   -3.1064   25.8433    5.1999 C   0  0  0  0  0  0  0  0  0  0  0  0
   -4.3581   25.0275    4.8261 C   0  0  0  0  0  0  0  0  0  0  0  0
   -5.0988   25.6263    3.6950 N   0  0  0  0  0  0  0  0  0  0  0  0
   -4.7994   27.0319    3.3740 C   0  0  0  0  0  0  0  0  0  0  0  0
   -4.4742   27.8402    4.6455 C   0  0  0  0  0  0  0  0  0  0  0  0
   -6.3329   31.0117    9.6420 C   0  0  0  0  0  0  0  0  0  0  0  0
   -5.1458   31.5885    9.0587 N   0  0  0  0  0  0  0  0  0  0  0  0
   -4.8974   32.9055    9.2259 N   0  0  0  0  0  0  0  0  0  0  0  0
   -3.7387   33.1023    8.5898 C   0  0  0  0  0  0  0  0  0  0  0  0
   -3.2411   31.9196    8.0168 C   0  0  0  0  0  0  0  0  0  0  0  0
   -4.1791   30.9605    8.3310 C   0  0  0  0  0  0  0  0  0  0  0  0
   -4.1151   29.5231    7.9541 C   0  0  0  0  0  0  0  0  0  0  0  0
   -3.1104   29.3513    6.7848 C   0  0  0  0  0  0  0  0  0  0  0  0
   -1.7951   30.1227    7.0724 C   0  0  0  0  0  0  0  0  0  0  0  0
   -2.0274   31.6418    7.2107 C   0  0  0  0  0  0  0  0  0  0  0  0
   -5.8310   24.8244    2.8312 C   0  0  0  0  0  0  0  0  0  0  0  0
   -6.5538   23.6935    3.2455 C   0  0  0  0  0  0  0  0  0  0  0  0
   -7.2938   22.8751    2.4479 N   0  0  0  0  0  0  0  0  0  0  0  0
   -7.3221   23.1903    1.1372 C   0  0  0  0  0  0  0  0  0  0  0  0
   -6.6433   24.2679    0.6090 C   0  0  0  0  0  0  0  0  0  0  0  0
   -6.6971   24.5301   -0.7033 F   0  0  0  0  0  0  0  0  0  0  0  0
   -5.8946   25.0820    1.4551 C   0  0  0  0  0  0  0  0  0  0  0  0
  9 10  1  0  0  0
 10 11  1  0  0  0
 11 12  2  0  0  0
 12 13  1  0  0  0
 13 14  2  0  0  0
 14 15  1  0  0  0
 15 16  1  0  0  0
 16  1  1  0  0  0
  1  2  2  0  0  0
  1  3  1  0  0  0
  3  4  1  0  0  0
  4  5  1  0  0  0
  5  6  1  0  0  0
  6 19  1  0  0  0
 19 20  2  0  0  0
 20 21  1  0  0  0
 21 22  2  0  0  0
 22 23  1  0  0  0
 23 24  1  0  0  0
 23 25  2  0  0  0
  6  7  1  0  0  0
  7  8  1  0  0  0
 16 17  1  0  0  0
 17 18  1  0  0  0
 14 10  1  0  0  0
  8  3  1  0  0  0
 18 13  1  0  0  0
 25 19  1  0  0  0
M  END
> <minimizedAffinity>
-8.83274

$$$$
OCNT-2317673


 23 26  0  0  0  0  0  0  0  0999 V2000
   -4.6482   30.7578    7.0454 C   0  0  0  0  0  0  0  0  0  0  0  0
   -5.1160   31.4637    8.3420 C   0  0  0  0  0  0  0  0  0  0  0  0
   -5.5482   30.3367    9.2671 C   0  0  0  0  0  0  0  0  0  0  0  0
   -4.6017   29.2043    8.8940 C   0  0  0  0  0  0  0  0  0  0  0  0
   -4.5019   29.3483    7.4507 N   0  0  0  0  0  0  0  0  0  0  0  0
   -3.9296   28.3440    6.6936 C   0  0  0  0  0  0  0  0  0  0  0  0
   -2.8232   27.7625    7.2335 N   0  0  0  0  0  0  0  0  0  0  0  0
   -2.2072   26.7833    6.5554 C   0  0  0  0  0  0  0  0  0  0  0  0
   -2.6489   26.3176    5.3421 C   0  0  0  0  0  0  0  0  0  0  0  0
   -3.7835   26.8687    4.7896 C   0  0  0  0  0  0  0  0  0  0  0  0
   -4.1968   26.3656    3.6078 N   0  0  0  0  0  0  0  0  0  0  0  0
   -5.3202   26.8910    3.0815 C   0  0  0  0  0  0  0  0  0  0  0  0
   -6.0169   27.8958    3.7091 C   0  0  0  0  0  0  0  0  0  0  0  0
   -5.6135   28.4185    4.8850 N   0  0  0  0  0  0  0  0  0  0  0  0
   -4.4742   27.9108    5.4558 C   0  0  0  0  0  0  0  0  0  0  0  0
   -3.3533   31.4088    6.5081 C   0  0  0  0  0  0  0  0  0  0  0  0
   -2.4543   31.7107    7.5826 O   0  0  0  0  0  0  0  0  0  0  0  0
    0.8509   29.1859    7.7742 C   0  0  0  0  0  0  0  0  0  0  0  0
    0.3307   29.6840    8.9677 C   0  0  0  0  0  0  0  0  0  0  0  0
   -0.7780   30.5365    8.9523 C   0  0  0  0  0  0  0  0  0  0  0  0
   -1.3696   30.8944    7.7404 C   0  0  0  0  0  0  0  0  0  0  0  0
   -0.8430   30.3902    6.5484 C   0  0  0  0  0  0  0  0  0  0  0  0
    0.2636   29.5393    6.5621 C   0  0  0  0  0  0  0  0  0  0  0  0
 18 19  2  0  0  0
 19 20  1  0  0  0
 20 21  2  0  0  0
 21 17  1  0  0  0
 17 16  1  0  0  0
 16  1  1  0  0  0
  1  2  1  0  0  0
  2  3  1  0  0  0
  3  4  1  0  0  0
  4  5  1  0  0  0
  5  6  1  0  0  0
  6  7  1  0  0  0
  7  8  2  0  0  0
  8  9  1  0  0  0
  9 10  2  0  0  0
 10 11  1  0  0  0
 11 12  2  0  0  0
 12 13  1  0  0  0
 13 14  2  0  0  0
 14 15  1  0  0  0
 21 22  1  0  0  0
 22 23  2  0  0  0
 23 18  1  0  0  0
  5  1  1  0  0  0
 15  6  2  0  0  0
 15 10  1  0  0  0
M  END
> <minimizedAffinity>
-8.66055

$$$$
OCNT-2317689


 27 30  0  0  0  0  0  0  0  0999 V2000
   -4.6880   31.3106    7.1948 O   0  0  0  0  0  0  0  0  0  0  0  0
   -4.2045   30.1832    7.3061 C   0  0  0  0  0  0  0  0  0  0  0  0
   -4.5138   29.1602    6.4118 N   0  0  0  0  0  0  0  0  0  0  0  0
   -3.9605   27.8072    6.4786 C   0  0  0  0  0  0  0  0  0  0  0  0
   -3.8495   27.1469    5.1082 C   0  0  0  0  0  0  0  0  0  0  0  0
   -5.1519   27.2015    4.2895 C   0  0  0  0  0  0  0  0  0  0  0  0
   -6.1867   28.1698    4.8742 C   0  0  0  0  0  0  0  0  0  0  0  0
   -5.5076   29.4363    5.3769 C   0  0  0  0  0  0  0  0  0  0  0  0
   -5.7248   25.8332    4.0034 C   0  0  0  0  0  0  0  0  0  0  0  0
   -6.1674   24.9505    4.9729 C   0  0  0  0  0  0  0  0  0  0  0  0
   -6.6298   23.8199    4.3603 N   0  0  0  0  0  0  0  0  0  0  0  0
   -6.5048   23.9351    2.9976 C   0  0  0  0  0  0  0  0  0  0  0  0
   -6.8501   23.0293    1.9868 C   0  0  0  0  0  0  0  0  0  0  0  0
   -6.6034   23.4154    0.6722 C   0  0  0  0  0  0  0  0  0  0  0  0
   -6.9203   22.5759   -0.3235 F   0  0  0  0  0  0  0  0  0  0  0  0
   -6.0377   24.6439    0.3655 C   0  0  0  0  0  0  0  0  0  0  0  0
   -5.7000   25.5374    1.3887 C   0  0  0  0  0  0  0  0  0  0  0  0
   -5.9365   25.1861    2.7372 C   0  0  0  0  0  0  0  0  0  0  0  0
   -7.0126   23.0143    4.8363 H   0  0  0  0  0  0  0  0  0  0  0  0
   -3.2414   29.8430    8.4276 C   0  0  0  0  0  0  0  0  0  0  0  0
   -2.0275   30.7675    8.4282 C   0  0  0  0  0  0  0  0  0  0  0  0
   -0.7967   30.0733    7.9577 C   0  0  0  0  0  0  0  0  0  0  0  0
    0.2139   29.5007    8.7009 C   0  0  0  0  0  0  0  0  0  0  0  0
    1.1035   29.0136    7.7840 N   0  0  0  0  0  0  0  0  0  0  0  0
    0.6083   29.2912    6.5423 C   0  0  0  0  0  0  0  0  0  0  0  0
   -0.5360   29.9301    6.6132 N   0  0  0  0  0  0  0  0  0  0  0  0
    1.9698   28.5320    7.9832 H   0  0  0  0  0  0  0  0  0  0  0  0
  1  2  2  0  0  0
  2 20  1  0  0  0
 20 21  1  0  0  0
 21 22  1  0  0  0
 22 23  2  0  0  0
 23 24  1  0  0  0
 24 25  1  0  0  0
 25 26  2  0  0  0
  2  3  1  0  0  0
  3  4  1  0  0  0
  4  5  1  0  0  0
  5  6  1  0  0  0
  6  9  1  0  0  0
  9 10  2  0  0  0
 10 11  1  0  0  0
 11 12  1  0  0  0
 12 13  2  0  0  0
 13 14  1  0  0  0
 14 15  1  0  0  0
 14 16  2  0  0  0
 16 17  1  0  0  0
 17 18  2  0  0  0
  6  7  1  0  0  0
  7  8  1  0  0  0
 26 22  1  0  0  0
  8  3  1  0  0  0
 18  9  1  0  0  0
 18 12  1  0  0  0
 24 27  1  0  0  0
 11 19  1  0  0  0
M  END
> <minimizedAffinity>
-9.18193

$$$$
OCNT-2317693


 31 34  0  0  0  0  0  0  0  0999 V2000
   -0.4840   28.1155    6.3272 C   0  0  0  0  0  0  0  0  0  0  0  0
    0.5260   28.2780    5.6423 O   0  0  0  0  0  0  0  0  0  0  0  0
   -1.3004   26.9991    6.1652 N   0  0  0  0  0  0  0  0  0  0  0  0
   -2.7380   26.9804    6.4988 C   0  0  0  0  0  0  0  0  0  0  0  0
   -3.5692   27.1984    5.2193 C   0  0  0  0  0  0  0  0  0  0  0  0
   -3.1951   26.2138    4.1927 N   0  0  0  0  0  0  0  0  0  0  0  0
   -3.9938   25.0719    4.0706 C   0  0  0  0  0  0  0  0  0  0  0  0
   -4.9832   24.9117    4.7869 O   0  0  0  0  0  0  0  0  0  0  0  0
   -1.7579   26.2308    3.8606 C   0  0  0  0  0  0  0  0  0  0  0  0
   -0.9251   26.0146    5.1396 C   0  0  0  0  0  0  0  0  0  0  0  0
   -0.9253   29.1392    7.3616 C   0  0  0  0  0  0  0  0  0  0  0  0
   -1.3452   30.4773    6.7512 C   0  0  0  0  0  0  0  0  0  0  0  0
   -1.2820   32.0224    9.6103 C   0  0  0  0  0  0  0  0  0  0  0  0
   -2.4532   31.7918    8.7280 C   0  0  0  0  0  0  0  0  0  0  0  0
   -3.6577   32.2504    9.0834 N   0  0  0  0  0  0  0  0  0  0  0  0
   -4.4612   31.8646    8.0839 N   0  0  0  0  0  0  0  0  0  0  0  0
   -3.8196   31.1724    7.0962 C   0  0  0  0  0  0  0  0  0  0  0  0
   -4.5445   30.6610    5.9092 C   0  0  0  0  0  0  0  0  0  0  0  0
   -2.4908   31.1127    7.4752 C   0  0  0  0  0  0  0  0  0  0  0  0
   -5.4447   32.1058    8.1401 H   0  0  0  0  0  0  0  0  0  0  0  0
   -3.5647   24.0531    3.0164 C   0  0  0  0  0  0  0  0  0  0  0  0
   -4.7092   23.3136    2.3972 C   0  0  0  0  0  0  0  0  0  0  0  0
   -5.1225   22.0302    2.7013 C   0  0  0  0  0  0  0  0  0  0  0  0
   -6.1966   21.7255    1.9097 N   0  0  0  0  0  0  0  0  0  0  0  0
   -6.4863   22.7769    1.0725 C   0  0  0  0  0  0  0  0  0  0  0  0
   -7.4825   22.9053    0.0971 C   0  0  0  0  0  0  0  0  0  0  0  0
   -7.5481   24.1106   -0.6076 C   0  0  0  0  0  0  0  0  0  0  0  0
   -6.6538   25.1450   -0.3434 C   0  0  0  0  0  0  0  0  0  0  0  0
   -5.6641   24.9998    0.6359 C   0  0  0  0  0  0  0  0  0  0  0  0
   -5.5738   23.7924    1.3591 C   0  0  0  0  0  0  0  0  0  0  0  0
   -6.7088   20.8551    1.9319 H   0  0  0  0  0  0  0  0  0  0  0  0
 13 14  1  0  0  0
 14 15  2  0  0  0
 15 16  1  0  0  0
 16 17  1  0  0  0
 17 18  1  0  0  0
 17 19  2  0  0  0
 19 12  1  0  0  0
 12 11  1  0  0  0
 11  1  1  0  0  0
  1  2  2  0  0  0
  1  3  1  0  0  0
  3  4  1  0  0  0
  4  5  1  0  0  0
  5  6  1  0  0  0
  6  7  1  0  0  0
  7  8  2  0  0  0
  7 21  1  0  0  0
 21 22  1  0  0  0
 22 23  2  0  0  0
 23 24  1  0  0  0
 24 25  1  0  0  0
 25 26  2  0  0  0
 26 27  1  0  0  0
 27 28  2  0  0  0
 28 29  1  0  0  0
 29 30  2  0  0  0
  6  9  1  0  0  0
  9 10  1  0  0  0
 19 14  1  0  0  0
 10  3  1  0  0  0
 30 22  1  0  0  0
 30 25  1  0  0  0
 16 20  1  0  0  0
 24 31  1  0  0  0
M  END
> <minimizedAffinity>
-10.20925

$$$$
OCNT-2317695


 24 26  0  0  0  0  0  0  0  0999 V2000
   -5.6619   27.1777    3.5645 C   0  0  0  0  0  0  0  0  0  0  0  0
   -5.8162   28.5173    3.1839 C   0  0  0  0  0  0  0  0  0  0  0  0
   -6.3223   29.4584    4.0889 C   0  0  0  0  0  0  0  0  0  0  0  0
   -6.6968   29.0788    5.3840 C   0  0  0  0  0  0  0  0  0  0  0  0
   -6.5393   27.7423    5.7642 C   0  0  0  0  0  0  0  0  0  0  0  0
   -6.0375   26.8053    4.8610 C   0  0  0  0  0  0  0  0  0  0  0  0
   -5.8784   25.5503    5.3062 F   0  0  0  0  0  0  0  0  0  0  0  0
   -2.7149   26.0069    3.3829 C   0  0  0  0  0  0  0  0  0  0  0  0
   -3.8617   25.7394    2.4743 C   0  0  0  0  0  0  0  0  0  0  0  0
   -3.7768   24.9216    1.4397 N   0  0  0  0  0  0  0  0  0  0  0  0
   -5.0442   24.7867    0.9628 C   0  0  0  0  0  0  0  0  0  0  0  0
   -5.9186   25.5415    1.7001 C   0  0  0  0  0  0  0  0  0  0  0  0
   -5.1656   26.2082    2.6471 N   0  0  0  0  0  0  0  0  0  0  0  0
   -7.2153   30.1044    6.3638 C   0  0  0  0  0  0  0  0  0  0  0  0
   -6.6280   29.8834    7.6824 N   0  0  0  0  0  0  0  0  0  0  0  0
   -6.0174   29.0624    7.6200 H   0  0  0  0  0  0  0  0  0  0  0  0
   -5.7560   30.9986    8.0900 C   0  0  0  0  0  0  0  0  0  0  0  0
   -5.5898   30.9432    9.6091 C   0  0  0  0  0  0  0  0  0  0  0  0
   -4.4190   30.8816    7.4042 C   0  0  0  0  0  0  0  0  0  0  0  0
   -3.8359   31.7362    6.4912 C   0  0  0  0  0  0  0  0  0  0  0  0
   -2.6279   31.1725    6.1864 N   0  0  0  0  0  0  0  0  0  0  0  0
   -2.5190   30.0148    6.9021 C   0  0  0  0  0  0  0  0  0  0  0  0
   -3.5819   29.8052    7.6431 N   0  0  0  0  0  0  0  0  0  0  0  0
   -1.9349   31.5415    5.5497 H   0  0  0  0  0  0  0  0  0  0  0  0
  8  9  1  0  0  0
  9 10  2  0  0  0
 10 11  1  0  0  0
 11 12  2  0  0  0
 12 13  1  0  0  0
 13  1  1  0  0  0
  1  2  1  0  0  0
  2  3  2  0  0  0
  3  4  1  0  0  0
  4 14  1  0  0  0
 14 15  1  0  0  0
 15 17  1  0  0  0
 17 18  1  0  0  0
 17 19  1  0  0  0
 19 20  2  0  0  0
 20 21  1  0  0  0
 21 22  1  0  0  0
 22 23  2  0  0  0
  4  5  2  0  0  0
  5  6  1  0  0  0
  6  7  1  0  0  0
 13  9  1  0  0  0
  6  1  2  0  0  0
 23 19  1  0  0  0
 15 16  1  0  0  0
 21 24  1  0  0  0
M  END
> <minimizedAffinity>
-7.90931

$$$$
OCNT-2317700


 30 33  0  0  0  0  0  0  0  0999 V2000
   -2.4233   26.2321    6.3877 O   0  0  0  0  0  0  0  0  0  0  0  0
   -3.0542   27.2443    6.1204 C   0  0  0  0  0  0  0  0  0  0  0  0
   -2.9748   28.4177    6.8259 N   0  0  0  0  0  0  0  0  0  0  0  0
   -3.9389   27.3620    5.0781 N   0  0  0  0  0  0  0  0  0  0  0  0
   -3.1395   29.2412    6.2634 H   0  0  0  0  0  0  0  0  0  0  0  0
   -4.6774   28.0316    5.2431 H   0  0  0  0  0  0  0  0  0  0  0  0
   -4.2701   26.2075    4.2463 C   0  0  0  0  0  0  0  0  0  0  0  0
   -5.2338   25.2442    4.9911 C   0  0  0  0  0  0  0  0  0  0  0  0
   -5.5319   23.9699    4.1767 C   0  0  0  0  0  0  0  0  0  0  0  0
   -5.7857   24.3398    2.7647 C   0  0  0  0  0  0  0  0  0  0  0  0
   -5.4755   25.5359    2.1604 C   0  0  0  0  0  0  0  0  0  0  0  0
   -5.8921   25.3751    0.8286 C   0  0  0  0  0  0  0  0  0  0  0  0
   -6.4223   24.1667    0.6089 N   0  0  0  0  0  0  0  0  0  0  0  0
   -6.3410   23.5511    1.8040 N   0  0  0  0  0  0  0  0  0  0  0  0
   -4.8559   26.6731    2.8850 C   0  0  0  0  0  0  0  0  0  0  0  0
   -6.6818   22.5983    1.8813 H   0  0  0  0  0  0  0  0  0  0  0  0
   -2.0216   28.5413    7.9151 C   0  0  0  0  0  0  0  0  0  0  0  0
   -1.2559   29.8967    7.9398 C   0  0  0  0  0  0  0  0  0  0  0  0
    0.0627   29.8117    8.7465 C   0  0  0  0  0  0  0  0  0  0  0  0
    1.0450   29.0621    7.8532 C   0  0  0  0  0  0  0  0  0  0  0  0
    0.6084   29.3495    6.4227 C   0  0  0  0  0  0  0  0  0  0  0  0
   -0.6697   30.1791    6.5301 C   0  0  0  0  0  0  0  0  0  0  0  0
   -2.1970   31.0079    8.4237 C   0  0  0  0  0  0  0  0  0  0  0  0
   -2.2098   31.4254    9.7699 C   0  0  0  0  0  0  0  0  0  0  0  0
   -3.0626   32.4456   10.2114 C   0  0  0  0  0  0  0  0  0  0  0  0
   -3.9134   33.0840    9.3145 C   0  0  0  0  0  0  0  0  0  0  0  0
   -3.8958   32.7046    7.9803 C   0  0  0  0  0  0  0  0  0  0  0  0
   -4.6925   33.3376    7.1077 F   0  0  0  0  0  0  0  0  0  0  0  0
   -3.0492   31.6892    7.5394 C   0  0  0  0  0  0  0  0  0  0  0  0
   -3.0294   31.4027    6.2288 F   0  0  0  0  0  0  0  0  0  0  0  0
  1  2  2  0  0  0
  2  3  1  0  0  0
  3 17  1  0  0  0
 17 18  1  0  0  0
 18 23  1  0  0  0
 23 24  2  0  0  0
 24 25  1  0  0  0
 25 26  2  0  0  0
 26 27  1  0  0  0
 27 28  1  0  0  0
 27 29  2  0  0  0
 29 30  1  0  0  0
 18 19  1  0  0  0
 19 20  1  0  0  0
 20 21  1  0  0  0
 21 22  1  0  0  0
  2  4  1  0  0  0
  4  7  1  0  0  0
  7  8  1  0  0  0
  8  9  1  0  0  0
  9 10  1  0  0  0
 10 11  2  0  0  0
 11 12  1  0  0  0
 12 13  2  0  0  0
 13 14  1  0  0  0
 11 15  1  0  0  0
 22 18  1  0  0  0
 15  7  1  0  0  0
 29 23  1  0  0  0
 14 10  1  0  0  0
  3  5  1  0  0  0
  4  6  1  0  0  0
 14 16  1  0  0  0
M  END
> <minimizedAffinity>
-10.93271

$$$$
OCNT-2317709


 24 26  0  0  0  0  0  0  0  0999 V2000
   -4.5701   27.7446    5.6843 N   0  0  0  0  0  0  0  0  0  0  0  0
   -3.4004   28.2300    6.2336 C   0  0  0  0  0  0  0  0  0  0  0  0
   -2.4155   27.4270    5.8818 N   0  0  0  0  0  0  0  0  0  0  0  0
   -2.9233   26.4506    5.0647 N   0  0  0  0  0  0  0  0  0  0  0  0
   -4.2098   26.6682    4.9037 C   0  0  0  0  0  0  0  0  0  0  0  0
   -3.2650   29.3792    7.1161 C   0  0  0  0  0  0  0  0  0  0  0  0
   -2.7639   30.6078    6.6798 C   0  0  0  0  0  0  0  0  0  0  0  0
   -2.6603   31.6707    7.5756 C   0  0  0  0  0  0  0  0  0  0  0  0
   -3.0571   31.4674    8.8873 C   0  0  0  0  0  0  0  0  0  0  0  0
   -3.5324   30.2929    9.3512 N   0  0  0  0  0  0  0  0  0  0  0  0
   -3.6095   29.2732    8.4602 C   0  0  0  0  0  0  0  0  0  0  0  0
   -5.1117   25.9447    4.1811 N   0  0  0  0  0  0  0  0  0  0  0  0
   -5.3203   26.3629    2.7745 C   0  0  0  0  0  0  0  0  0  0  0  0
   -4.8998   25.2730    1.7600 C   0  0  0  0  0  0  0  0  0  0  0  0
   -5.5573   23.9548    1.9328 N   0  0  0  0  0  0  0  0  0  0  0  0
   -5.9290   23.7506    3.3540 C   0  0  0  0  0  0  0  0  0  0  0  0
   -4.9937   24.4761    4.3454 C   0  0  0  0  0  0  0  0  0  0  0  0
   -6.6657   23.7023    0.9883 C   0  0  0  0  0  0  0  0  0  0  0  0
   -6.5909   22.3112    0.3322 C   0  0  0  0  0  0  0  0  0  0  0  0
   -6.6626   24.7373   -0.1504 C   0  0  0  0  0  0  0  0  0  0  0  0
   -5.9184   28.1829    5.9848 C   0  0  0  0  0  0  0  0  0  0  0  0
   -6.2081   29.6786    3.9900 C   0  0  0  0  0  0  0  0  0  0  0  0
   -6.2361   29.6158    5.5186 C   0  0  0  0  0  0  0  0  0  0  0  0
   -7.5948   30.0975    6.0321 C   0  0  0  0  0  0  0  0  0  0  0  0
 22 23  1  0  0  0
 23 24  1  0  0  0
 23 21  1  0  0  0
 21  1  1  0  0  0
  1  2  1  0  0  0
  2  6  1  0  0  0
  6  7  1  0  0  0
  7  8  2  0  0  0
  8  9  1  0  0  0
  9 10  2  0  0  0
 10 11  1  0  0  0
  2  3  2  0  0  0
  3  4  1  0  0  0
  4  5  2  0  0  0
  5 12  1  0  0  0
 12 13  1  0  0  0
 13 14  1  0  0  0
 14 15  1  0  0  0
 15 18  1  0  0  0
 18 19  1  0  0  0
 18 20  1  0  0  0
 15 16  1  0  0  0
 16 17  1  0  0  0
  5  1  1  0  0  0
 17 12  1  0  0  0
 11  6  2  0  0  0
M  END
> <minimizedAffinity>
-8.14804

$$$$
OCNT-2317724


 26 29  0  0  0  0  0  0  0  0999 V2000
   -6.6850   30.1223    7.0968 O   0  0  0  0  0  0  0  0  0  0  0  0
   -5.5313   30.1426    6.6725 C   0  0  0  0  0  0  0  0  0  0  0  0
   -5.2432   29.8503    5.3490 N   0  0  0  0  0  0  0  0  0  0  0  0
   -4.2833   29.6902    5.0856 H   0  0  0  0  0  0  0  0  0  0  0  0
   -4.3569   30.4550    7.5149 C   0  0  0  0  0  0  0  0  0  0  0  0
   -3.1041   30.3551    7.0326 N   0  0  0  0  0  0  0  0  0  0  0  0
   -2.3038   30.7056    8.0522 N   0  0  0  0  0  0  0  0  0  0  0  0
   -2.9919   31.0331    9.1835 C   0  0  0  0  0  0  0  0  0  0  0  0
   -4.3220   30.8776    8.8750 C   0  0  0  0  0  0  0  0  0  0  0  0
   -0.8634   30.7080    7.8549 C   0  0  0  0  0  0  0  0  0  0  0  0
   -0.1051   30.0420    9.0148 C   0  0  0  0  0  0  0  0  0  0  0  0
    0.9964   29.2281    8.3504 C   0  0  0  0  0  0  0  0  0  0  0  0
    0.3537   28.7560    7.0579 C   0  0  0  0  0  0  0  0  0  0  0  0
   -0.4124   29.9812    6.5754 C   0  0  0  0  0  0  0  0  0  0  0  0
   -6.2754   29.4101    4.4411 C   0  0  0  0  0  0  0  0  0  0  0  0
   -6.1185   27.9561    4.1045 C   0  0  0  0  0  0  0  0  0  0  0  0
   -5.7720   27.5307    2.8204 C   0  0  0  0  0  0  0  0  0  0  0  0
   -5.6212   26.1688    2.5519 C   0  0  0  0  0  0  0  0  0  0  0  0
   -5.8171   25.2581    3.5868 C   0  0  0  0  0  0  0  0  0  0  0  0
   -6.1460   25.6512    4.8440 N   0  0  0  0  0  0  0  0  0  0  0  0
   -6.2841   26.9770    5.0761 C   0  0  0  0  0  0  0  0  0  0  0  0
   -5.6746   23.8605    3.3605 N   0  0  0  0  0  0  0  0  0  0  0  0
   -5.6501   22.8861    4.3367 C   0  0  0  0  0  0  0  0  0  0  0  0
   -5.4959   21.6912    3.6777 C   0  0  0  0  0  0  0  0  0  0  0  0
   -5.4241   21.8895    2.3264 N   0  0  0  0  0  0  0  0  0  0  0  0
   -5.5341   23.1912    2.1661 C   0  0  0  0  0  0  0  0  0  0  0  0
  1  2  2  0  0  0
  2  3  1  0  0  0
  3 15  1  0  0  0
 15 16  1  0  0  0
 16 17  2  0  0  0
 17 18  1  0  0  0
 18 19  2  0  0  0
 19 22  1  0  0  0
 22 23  1  0  0  0
 23 24  2  0  0  0
 24 25  1  0  0  0
 25 26  2  0  0  0
 19 20  1  0  0  0
 20 21  2  0  0  0
  2  5  1  0  0  0
  5  6  2  0  0  0
  6  7  1  0  0  0
  7 10  1  0  0  0
 10 11  1  0  0  0
 11 12  1  0  0  0
 12 13  1  0  0  0
 13 14  1  0  0  0
  7  8  1  0  0  0
  8  9  2  0  0  0
 21 16  1  0  0  0
  9  5  1  0  0  0
 26 22  1  0  0  0
 14 10  1  0  0  0
  3  4  1  0  0  0
M  END
> <minimizedAffinity>
-9.04697

$$$$
OCNT-2317729


 26 29  0  0  0  0  0  0  0  0999 V2000
   -4.2635   26.3337    4.9913 C   0  0  0  0  0  0  0  0  0  0  0  0
   -3.1094   26.8285    5.7676 C   0  0  0  0  0  0  0  0  0  0  0  0
   -2.2112   26.0052    6.3298 N   0  0  0  0  0  0  0  0  0  0  0  0
   -1.3047   26.8820    6.9270 O   0  0  0  0  0  0  0  0  0  0  0  0
   -1.7331   28.1492    6.6370 C   0  0  0  0  0  0  0  0  0  0  0  0
   -2.8305   28.1642    5.9104 N   0  0  0  0  0  0  0  0  0  0  0  0
   -1.0117   29.4415    7.1299 C   0  0  0  0  0  0  0  0  0  0  0  0
    0.4855   29.5305    6.7011 C   0  0  0  0  0  0  0  0  0  0  0  0
    0.8774   29.0447    8.1095 C   0  0  0  0  0  0  0  0  0  0  0  0
   -0.5352   29.4287    8.5949 C   0  0  0  0  0  0  0  0  0  0  0  0
   -0.7775   30.8529    9.0717 C   0  0  0  0  0  0  0  0  0  0  0  0
   -1.9525   31.3250    8.3395 N   0  0  0  0  0  0  0  0  0  0  0  0
   -1.8611   30.7017    7.0059 C   0  0  0  0  0  0  0  0  0  0  0  0
   -2.7889   30.9650    8.8053 H   0  0  0  0  0  0  0  0  0  0  0  0
   -4.4311   24.4620    3.4422 N   0  0  0  0  0  0  0  0  0  0  0  0
   -3.7984   25.6577    3.7207 C   0  0  0  0  0  0  0  0  0  0  0  0
   -2.9197   26.1270    3.0031 O   0  0  0  0  0  0  0  0  0  0  0  0
   -5.3281   24.2887    3.8696 H   0  0  0  0  0  0  0  0  0  0  0  0
   -4.1606   23.7713    2.2022 C   0  0  0  0  0  0  0  0  0  0  0  0
   -5.9086   21.3469    1.7772 C   0  0  0  0  0  0  0  0  0  0  0  0
   -6.1856   22.6600    1.0978 C   0  0  0  0  0  0  0  0  0  0  0  0
   -7.2859   22.7566    0.2301 C   0  0  0  0  0  0  0  0  0  0  0  0
   -7.5781   23.9521   -0.4279 C   0  0  0  0  0  0  0  0  0  0  0  0
   -6.7726   25.0674   -0.2310 C   0  0  0  0  0  0  0  0  0  0  0  0
   -5.6768   24.9888    0.6275 C   0  0  0  0  0  0  0  0  0  0  0  0
   -5.3750   23.7959    1.3094 C   0  0  0  0  0  0  0  0  0  0  0  0
 20 21  1  0  0  0
 21 22  2  0  0  0
 22 23  1  0  0  0
 23 24  2  0  0  0
 24 25  1  0  0  0
 25 26  2  0  0  0
 26 19  1  0  0  0
 19 15  1  0  0  0
 15 16  1  0  0  0
 16 17  2  0  0  0
 16  1  1  0  0  0
  1  2  1  0  0  0
  2  3  2  0  0  0
  3  4  1  0  0  0
  4  5  1  0  0  0
  7  5  1  0  0  0
  7  8  1  0  0  0
  8  9  1  0  0  0
  9 10  1  0  0  0
 10 11  1  0  0  0
 11 12  1  0  0  0
 12 13  1  0  0  0
  5  6  2  0  0  0
 26 21  1  0  0  0
  6  2  1  0  0  0
 10  7  1  0  0  0
 13  7  1  0  0  0
 15 18  1  0  0  0
 12 14  1  0  0  0
M  END
> <minimizedAffinity>
-9.95056

$$$$
OCNT-2317738


 29 32  0  0  0  0  0  0  0  0999 V2000
   -5.5140   24.8906    4.5673 N   0  0  0  0  0  0  0  0  0  0  0  0
   -6.5223   25.0507    4.5900 H   0  0  0  0  0  0  0  0  0  0  0  0
   -5.2071   23.6526    3.8426 C   0  0  0  0  0  0  0  0  0  0  0  0
   -6.4139   22.6474    3.7117 C   0  0  0  0  0  0  0  0  0  0  0  0
   -7.3883   23.1386    2.6068 C   0  0  0  0  0  0  0  0  0  0  0  0
   -6.7269   23.2186    1.2297 C   0  0  0  0  0  0  0  0  0  0  0  0
   -5.6669   22.2782    1.0575 O   0  0  0  0  0  0  0  0  0  0  0  0
   -5.9135   21.0544    1.7309 C   0  0  0  0  0  0  0  0  0  0  0  0
   -5.8687   21.2564    3.2449 C   0  0  0  0  0  0  0  0  0  0  0  0
   -9.0133   21.9087    9.3569 Br  0  0  0  0  0  0  0  0  0  0  0  0
   -8.2388   22.1229    7.6474 C   0  0  0  0  0  0  0  0  0  0  0  0
   -9.0297   22.5165    6.5734 C   0  0  0  0  0  0  0  0  0  0  0  0
   -8.4568   22.6832    5.3076 C   0  0  0  0  0  0  0  0  0  0  0  0
   -7.0851   22.4600    5.0934 C   0  0  0  0  0  0  0  0  0  0  0  0
   -6.3105   22.0602    6.2028 C   0  0  0  0  0  0  0  0  0  0  0  0
   -6.8802   21.8924    7.4682 C   0  0  0  0  0  0  0  0  0  0  0  0
   -4.9031   26.1191    4.0311 C   0  0  0  0  0  0  0  0  0  0  0  0
   -5.5954   27.3964    4.4681 C   0  0  0  0  0  0  0  0  0  0  0  0
   -5.6689   28.5368    3.6581 C   0  0  0  0  0  0  0  0  0  0  0  0
   -6.3178   29.6782    4.1202 C   0  0  0  0  0  0  0  0  0  0  0  0
   -6.8795   29.6462    5.3848 C   0  0  0  0  0  0  0  0  0  0  0  0
   -6.8383   28.5690    6.1974 N   0  0  0  0  0  0  0  0  0  0  0  0
   -6.2054   27.4733    5.7184 C   0  0  0  0  0  0  0  0  0  0  0  0
   -3.4415   26.1366    4.4314 C   0  0  0  0  0  0  0  0  0  0  0  0
   -2.3876   26.0523    3.6353 N   0  0  0  0  0  0  0  0  0  0  0  0
   -1.2939   26.1139    4.4580 C   0  0  0  0  0  0  0  0  0  0  0  0
   -1.6778   26.2391    5.7704 C   0  0  0  0  0  0  0  0  0  0  0  0
   -3.0441   26.2556    5.7423 N   0  0  0  0  0  0  0  0  0  0  0  0
   -3.6601   26.3427    6.5390 H   0  0  0  0  0  0  0  0  0  0  0  0
 10 11  1  0  0  0
 11 12  1  0  0  0
 12 13  2  0  0  0
 13 14  1  0  0  0
 14  4  1  0  0  0
  4  3  1  0  0  0
  3  1  1  0  0  0
  1 17  1  0  0  0
 17 18  1  0  0  0
 18 19  1  0  0  0
 19 20  2  0  0  0
 20 21  1  0  0  0
 21 22  2  0  0  0
 22 23  1  0  0  0
 17 24  1  0  0  0
 24 25  2  0  0  0
 25 26  1  0  0  0
 26 27  2  0  0  0
 27 28  1  0  0  0
  4  5  1  0  0  0
  5  6  1  0  0  0
  6  7  1  0  0  0
  7  8  1  0  0  0
  8  9  1  0  0  0
 14 15  2  0  0  0
 15 16  1  0  0  0
 16 11  2  0  0  0
  9  4  1  0  0  0
 23 18  2  0  0  0
 28 24  1  0  0  0
  1  2  1  0  0  0
 28 29  1  0  0  0
M  END
> <minimizedAffinity>
-9.04076

$$$$
OCNT-2317740


 27 30  0  0  0  0  0  0  0  0999 V2000
   -1.0458   27.1730    6.7466 C   0  0  0  0  0  0  0  0  0  0  0  0
    0.1758   27.9190    7.0751 N   0  0  0  0  0  0  0  0  0  0  0  0
    0.9775   27.4259    6.6803 H   0  0  0  0  0  0  0  0  0  0  0  0
    0.1678   29.2779    6.5343 C   0  0  0  0  0  0  0  0  0  0  0  0
   -0.7406   30.1692    7.3482 C   0  0  0  0  0  0  0  0  0  0  0  0
   -0.4564   30.4475    8.6941 C   0  0  0  0  0  0  0  0  0  0  0  0
   -1.3082   31.2616    9.4451 C   0  0  0  0  0  0  0  0  0  0  0  0
   -2.4531   31.7970    8.8602 C   0  0  0  0  0  0  0  0  0  0  0  0
   -3.2536   32.5677    9.6646 O   0  0  0  0  0  0  0  0  0  0  0  0
   -4.5451   32.7623    9.0770 C   0  0  0  0  0  0  0  0  0  0  0  0
   -4.4157   33.1339    7.6092 C   0  0  0  0  0  0  0  0  0  0  0  0
   -3.8276   32.0613    6.8652 O   0  0  0  0  0  0  0  0  0  0  0  0
   -2.7360   31.5431    7.5149 C   0  0  0  0  0  0  0  0  0  0  0  0
   -1.8946   30.7197    6.7682 C   0  0  0  0  0  0  0  0  0  0  0  0
   -0.9996   26.4993    5.3685 C   0  0  0  0  0  0  0  0  0  0  0  0
   -3.8803   25.5180    3.5293 C   0  0  0  0  0  0  0  0  0  0  0  0
   -2.5810   25.4373    3.7504 N   0  0  0  0  0  0  0  0  0  0  0  0
   -2.3602   26.2998    4.8004 C   0  0  0  0  0  0  0  0  0  0  0  0
   -3.5522   26.8747    5.1742 C   0  0  0  0  0  0  0  0  0  0  0  0
   -4.5329   26.3857    4.3674 O   0  0  0  0  0  0  0  0  0  0  0  0
   -6.9552   22.7744   -0.2634 F   0  0  0  0  0  0  0  0  0  0  0  0
   -6.2226   23.4365    0.6413 C   0  0  0  0  0  0  0  0  0  0  0  0
   -5.4235   22.7267    1.5281 C   0  0  0  0  0  0  0  0  0  0  0  0
   -4.6597   23.4194    2.4712 C   0  0  0  0  0  0  0  0  0  0  0  0
   -4.6911   24.8236    2.5320 C   0  0  0  0  0  0  0  0  0  0  0  0
   -5.5084   25.5171    1.6234 C   0  0  0  0  0  0  0  0  0  0  0  0
   -6.2727   24.8244    0.6797 C   0  0  0  0  0  0  0  0  0  0  0  0
 21 22  1  0  0  0
 22 23  1  0  0  0
 23 24  2  0  0  0
 24 25  1  0  0  0
 25 16  1  0  0  0
 16 17  2  0  0  0
 17 18  1  0  0  0
 18 15  1  0  0  0
 15  1  1  0  0  0
  1  2  1  0  0  0
  2  4  1  0  0  0
  4  5  1  0  0  0
  5  6  1  0  0  0
  6  7  2  0  0  0
  7  8  1  0  0  0
  8  9  1  0  0  0
  9 10  1  0  0  0
 10 11  1  0  0  0
 11 12  1  0  0  0
 12 13  1  0  0  0
 13 14  1  0  0  0
 18 19  2  0  0  0
 19 20  1  0  0  0
 25 26  2  0  0  0
 26 27  1  0  0  0
 27 22  2  0  0  0
 20 16  1  0  0  0
 14  5  2  0  0  0
 13  8  2  0  0  0
  2  3  1  0  0  0
M  END
> <minimizedAffinity>
-9.65060

$$$$
OCNT-2317761


 26 29  0  0  0  0  0  0  0  0999 V2000
   -2.5093   25.7004    4.0348 O   0  0  0  0  0  0  0  0  0  0  0  0
   -3.1607   26.0794    5.0002 C   0  0  0  0  0  0  0  0  0  0  0  0
   -4.4378   25.6824    5.3557 N   0  0  0  0  0  0  0  0  0  0  0  0
   -4.8950   26.1890    6.1034 H   0  0  0  0  0  0  0  0  0  0  0  0
   -2.5526   27.1087    5.8770 C   0  0  0  0  0  0  0  0  0  0  0  0
   -3.3125   28.1355    6.4338 C   0  0  0  0  0  0  0  0  0  0  0  0
   -2.8419   29.1237    7.2344 N   0  0  0  0  0  0  0  0  0  0  0  0
   -1.5163   29.0360    7.5075 C   0  0  0  0  0  0  0  0  0  0  0  0
   -0.6654   29.8433    8.2868 C   0  0  0  0  0  0  0  0  0  0  0  0
    0.5963   29.3962    8.2986 N   0  0  0  0  0  0  0  0  0  0  0  0
    0.5428   28.2917    7.5278 N   0  0  0  0  0  0  0  0  0  0  0  0
   -0.6985   28.0279    7.0150 C   0  0  0  0  0  0  0  0  0  0  0  0
   -1.1906   27.0224    6.1832 C   0  0  0  0  0  0  0  0  0  0  0  0
    1.3969   27.7622    7.3898 H   0  0  0  0  0  0  0  0  0  0  0  0
   -5.2332   24.6970    4.7285 C   0  0  0  0  0  0  0  0  0  0  0  0
   -5.6920   23.6460    5.5309 C   0  0  0  0  0  0  0  0  0  0  0  0
   -6.4772   22.6291    4.9878 C   0  0  0  0  0  0  0  0  0  0  0  0
   -6.8101   22.6521    3.6339 C   0  0  0  0  0  0  0  0  0  0  0  0
   -6.3608   23.6907    2.8085 C   0  0  0  0  0  0  0  0  0  0  0  0
   -5.5718   24.7098    3.3716 C   0  0  0  0  0  0  0  0  0  0  0  0
   -6.7168   23.7040    1.3970 C   0  0  0  0  0  0  0  0  0  0  0  0
   -6.4202   24.7143    0.5056 C   0  0  0  0  0  0  0  0  0  0  0  0
   -6.9225   24.3270   -0.7027 N   0  0  0  0  0  0  0  0  0  0  0  0
   -7.5227   23.1269   -0.6727 N   0  0  0  0  0  0  0  0  0  0  0  0
   -7.3996   22.7507    0.6032 C   0  0  0  0  0  0  0  0  0  0  0  0
   -6.8889   24.8272   -1.5849 H   0  0  0  0  0  0  0  0  0  0  0  0
  1  2  2  0  0  0
  2  3  1  0  0  0
  3 15  1  0  0  0
 15 16  2  0  0  0
 16 17  1  0  0  0
 17 18  2  0  0  0
 18 19  1  0  0  0
 19 21  1  0  0  0
 21 22  2  0  0  0
 22 23  1  0  0  0
 23 24  1  0  0  0
 24 25  2  0  0  0
 19 20  2  0  0  0
  2  5  1  0  0  0
  5  6  1  0  0  0
  6  7  2  0  0  0
  7  8  1  0  0  0
  8  9  1  0  0  0
  9 10  2  0  0  0
 10 11  1  0  0  0
 11 12  1  0  0  0
 12 13  1  0  0  0
 20 15  1  0  0  0
 13  5  2  0  0  0
 25 21  1  0  0  0
 12  8  2  0  0  0
  3  4  1  0  0  0
 23 26  1  0  0  0
 11 14  1  0  0  0
M  END
> <minimizedAffinity>
-9.01715

$$$$
OCNT-2317763


 27 29  0  0  0  0  0  0  0  0999 V2000
   -1.2465   28.5536    7.4168 C   0  0  0  0  0  0  0  0  0  0  0  0
   -0.6232   29.9387    7.7461 C   0  0  0  0  0  0  0  0  0  0  0  0
    0.1901   29.8314    8.9167 O   0  0  0  0  0  0  0  0  0  0  0  0
    0.9106   29.2121    8.7129 H   0  0  0  0  0  0  0  0  0  0  0  0
   -1.6485   31.0249    7.9978 C   0  0  0  0  0  0  0  0  0  0  0  0
   -1.8453   31.5527    9.2824 C   0  0  0  0  0  0  0  0  0  0  0  0
   -2.8020   32.5454    9.5092 C   0  0  0  0  0  0  0  0  0  0  0  0
   -3.5759   33.0434    8.4523 C   0  0  0  0  0  0  0  0  0  0  0  0
   -3.3795   32.5193    7.1666 C   0  0  0  0  0  0  0  0  0  0  0  0
   -2.4220   31.5266    6.9414 C   0  0  0  0  0  0  0  0  0  0  0  0
   -4.6231   34.1014    8.6971 C   0  0  0  0  0  0  0  0  0  0  0  0
   -5.7862   33.8661    8.0269 F   0  0  0  0  0  0  0  0  0  0  0  0
   -4.2262   35.3500    8.3236 F   0  0  0  0  0  0  0  0  0  0  0  0
   -4.9639   34.1951   10.0122 F   0  0  0  0  0  0  0  0  0  0  0  0
   -2.3600   28.1077    8.2654 N   0  0  0  0  0  0  0  0  0  0  0  0
   -2.4429   28.7349    9.0661 H   0  0  0  0  0  0  0  0  0  0  0  0
   -5.4864   26.8847    5.3027 C   0  0  0  0  0  0  0  0  0  0  0  0
   -4.7275   28.2103    5.2948 C   0  0  0  0  0  0  0  0  0  0  0  0
   -3.4021   28.1740    6.0503 C   0  0  0  0  0  0  0  0  0  0  0  0
   -3.6424   27.9943    7.5513 C   0  0  0  0  0  0  0  0  0  0  0  0
   -4.6657   29.0146    8.0011 C   0  0  0  0  0  0  0  0  0  0  0  0
   -4.7758   29.4065    9.3471 C   0  0  0  0  0  0  0  0  0  0  0  0
   -5.7467   30.3245    9.7542 C   0  0  0  0  0  0  0  0  0  0  0  0
   -6.6301   30.8608    8.8235 C   0  0  0  0  0  0  0  0  0  0  0  0
   -6.5423   30.4750    7.4880 C   0  0  0  0  0  0  0  0  0  0  0  0
   -5.5746   29.5527    7.0790 C   0  0  0  0  0  0  0  0  0  0  0  0
   -5.5923   29.2572    5.7427 O   0  0  0  0  0  0  0  0  0  0  0  0
 17 18  1  0  0  0
 18 19  1  0  0  0
 19 20  1  0  0  0
 20 15  1  0  0  0
 15  1  1  0  0  0
  1  2  1  0  0  0
  2  3  1  0  0  0
  2  5  1  0  0  0
  5  6  1  0  0  0
  6  7  2  0  0  0
  7  8  1  0  0  0
  8 11  1  0  0  0
 11 12  1  0  0  0
 11 13  1  0  0  0
 11 14  1  0  0  0
  8  9  2  0  0  0
  9 10  1  0  0  0
 20 21  1  0  0  0
 21 22  2  0  0  0
 22 23  1  0  0  0
 23 24  2  0  0  0
 24 25  1  0  0  0
 25 26  2  0  0  0
 26 27  1  0  0  0
 27 18  1  0  0  0
 10  5  2  0  0  0
 26 21  1  0  0  0
 15 16  1  0  0  0
  3  4  1  0  0  0
M  END
> <minimizedAffinity>
-8.87934

$$$$
OCNT-2317790


 23 25  0  0  0  0  0  0  0  0999 V2000
   -3.8774   26.6984    4.9670 C   0  0  0  0  0  0  0  0  0  0  0  0
   -5.3086   26.7407    4.4372 C   0  0  0  0  0  0  0  0  0  0  0  0
   -5.7197   25.3827    3.8550 C   0  0  0  0  0  0  0  0  0  0  0  0
   -4.6270   24.6495    3.2017 N   0  0  0  0  0  0  0  0  0  0  0  0
   -3.5985   25.5602    2.6896 C   0  0  0  0  0  0  0  0  0  0  0  0
   -2.9104   26.3031    3.8389 C   0  0  0  0  0  0  0  0  0  0  0  0
   -2.1390   27.0397    7.1429 O   0  0  0  0  0  0  0  0  0  0  0  0
   -2.6762   28.0343    6.6696 C   0  0  0  0  0  0  0  0  0  0  0  0
   -3.5144   27.9808    5.5704 N   0  0  0  0  0  0  0  0  0  0  0  0
   -4.1892   28.7272    5.4902 H   0  0  0  0  0  0  0  0  0  0  0  0
   -2.5138   29.3590    7.2315 C   0  0  0  0  0  0  0  0  0  0  0  0
   -2.3738   29.7015    8.5691 C   0  0  0  0  0  0  0  0  0  0  0  0
   -2.2311   31.1034    8.6520 C   0  0  0  0  0  0  0  0  0  0  0  0
   -2.0457   31.9881   10.0859 Cl  0  0  0  0  0  0  0  0  0  0  0  0
   -2.2615   31.5968    7.3710 C   0  0  0  0  0  0  0  0  0  0  0  0
   -2.4144   30.5357    6.5177 N   0  0  0  0  0  0  0  0  0  0  0  0
   -2.4129   30.5981    5.5084 H   0  0  0  0  0  0  0  0  0  0  0  0
   -5.0833   23.7208    2.1540 C   0  0  0  0  0  0  0  0  0  0  0  0
   -6.3469   24.1625    1.4047 C   0  0  0  0  0  0  0  0  0  0  0  0
   -7.0420   23.0040    0.7097 C   0  0  0  0  0  0  0  0  0  0  0  0
   -7.9250   23.7202   -0.2859 C   0  0  0  0  0  0  0  0  0  0  0  0
   -7.1984   24.8815   -0.7025 O   0  0  0  0  0  0  0  0  0  0  0  0
   -6.1368   25.1160    0.2387 C   0  0  0  0  0  0  0  0  0  0  0  0
  7  8  2  0  0  0
  8  9  1  0  0  0
  9  1  1  0  0  0
  1  2  1  0  0  0
  2  3  1  0  0  0
  3  4  1  0  0  0
  4 18  1  0  0  0
 18 19  1  0  0  0
 19 20  1  0  0  0
 20 21  1  0  0  0
 21 22  1  0  0  0
 22 23  1  0  0  0
  4  5  1  0  0  0
  5  6  1  0  0  0
  8 11  1  0  0  0
 11 12  2  0  0  0
 12 13  1  0  0  0
 13 14  1  0  0  0
 13 15  2  0  0  0
 15 16  1  0  0  0
  6  1  1  0  0  0
 16 11  1  0  0  0
 23 19  1  0  0  0
  9 10  1  0  0  0
 16 17  1  0  0  0
M  END
> <minimizedAffinity>
-8.09591

$$$$
OCNT-2317809


 24 27  0  0  0  0  0  0  0  0999 V2000
   -1.0313   27.9722    6.5659 O   0  0  0  0  0  0  0  0  0  0  0  0
   -0.2537   29.1693    6.8093 S   0  0  0  0  0  0  0  0  0  0  0  0
    0.9261   29.4946    6.0351 O   0  0  0  0  0  0  0  0  0  0  0  0
    0.1730   29.2176    8.5405 C   0  0  0  0  0  0  0  0  0  0  0  0
   -0.2926   30.5851    9.0263 C   0  0  0  0  0  0  0  0  0  0  0  0
   -1.6261   30.9091    8.3081 C   0  0  0  0  0  0  0  0  0  0  0  0
   -1.9797   32.4124    8.4549 C   0  0  0  0  0  0  0  0  0  0  0  0
   -3.0518   32.6310    9.5155 C   0  0  0  0  0  0  0  0  0  0  0  0
   -4.3272   31.8455    9.1786 C   0  0  0  0  0  0  0  0  0  0  0  0
   -4.0614   30.5788    8.4736 N   0  0  0  0  0  0  0  0  0  0  0  0
   -2.7720   30.0123    8.8633 C   0  0  0  0  0  0  0  0  0  0  0  0
   -1.3434   30.5890    6.8207 C   0  0  0  0  0  0  0  0  0  0  0  0
   -5.1590   29.6096    8.6333 C   0  0  0  0  0  0  0  0  0  0  0  0
   -5.8623   29.3245    7.3573 C   0  0  0  0  0  0  0  0  0  0  0  0
   -6.8825   29.9277    6.6612 C   0  0  0  0  0  0  0  0  0  0  0  0
   -7.1470   29.2277    5.5121 N   0  0  0  0  0  0  0  0  0  0  0  0
   -6.2873   28.2244    5.5427 C   0  0  0  0  0  0  0  0  0  0  0  0
   -5.4762   28.2194    6.6485 O   0  0  0  0  0  0  0  0  0  0  0  0
   -6.0932   27.1439    4.5791 C   0  0  0  0  0  0  0  0  0  0  0  0
   -6.1756   25.8099    5.0072 C   0  0  0  0  0  0  0  0  0  0  0  0
   -5.9943   24.7558    4.1078 C   0  0  0  0  0  0  0  0  0  0  0  0
   -5.7281   25.0230    2.7669 C   0  0  0  0  0  0  0  0  0  0  0  0
   -5.6431   26.3416    2.3245 C   0  0  0  0  0  0  0  0  0  0  0  0
   -5.8247   27.3953    3.2249 C   0  0  0  0  0  0  0  0  0  0  0  0
  1  2  2  0  0  0
  2  3  2  0  0  0
  2  4  1  0  0  0
  4  5  1  0  0  0
  5  6  1  0  0  0
  6  7  1  0  0  0
  7  8  1  0  0  0
  8  9  1  0  0  0
  9 10  1  0  0  0
 10 13  1  0  0  0
 13 14  1  0  0  0
 14 15  2  0  0  0
 15 16  1  0  0  0
 16 17  2  0  0  0
 17 19  1  0  0  0
 19 20  2  0  0  0
 20 21  1  0  0  0
 21 22  2  0  0  0
 22 23  1  0  0  0
 23 24  2  0  0  0
 17 18  1  0  0  0
 10 11  1  0  0  0
  6 12  1  0  0  0
 12  2  1  0  0  0
 11  6  1  0  0  0
 18 14  1  0  0  0
 24 19  1  0  0  0
M  END
> <minimizedAffinity>
-10.03166

$$$$
OCNT-2317811


 25 27  0  0  0  0  0  0  0  0999 V2000
   -1.5180   28.3308    7.7404 C   0  0  0  0  0  0  0  0  0  0  0  0
   -1.3374   27.4345    6.6813 C   0  0  0  0  0  0  0  0  0  0  0  0
   -2.3711   27.1912    5.7647 C   0  0  0  0  0  0  0  0  0  0  0  0
   -3.6096   27.8286    5.9213 C   0  0  0  0  0  0  0  0  0  0  0  0
   -3.7870   28.7348    6.9793 C   0  0  0  0  0  0  0  0  0  0  0  0
   -2.7545   28.9880    7.8904 C   0  0  0  0  0  0  0  0  0  0  0  0
   -4.7310   27.6085    4.9265 C   0  0  0  0  0  0  0  0  0  0  0  0
   -4.5783   26.3918    4.1085 N   0  0  0  0  0  0  0  0  0  0  0  0
   -3.2253   26.3435    3.5379 C   0  0  0  0  0  0  0  0  0  0  0  0
   -2.1765   26.1966    4.6491 C   0  0  0  0  0  0  0  0  0  0  0  0
    0.6593   29.1971    8.2103 C   0  0  0  0  0  0  0  0  0  0  0  0
   -0.5573   28.6320    8.6750 O   0  0  0  0  0  0  0  0  0  0  0  0
   -2.8502   29.8588    8.9486 O   0  0  0  0  0  0  0  0  0  0  0  0
   -4.0521   30.6021    9.0841 C   0  0  0  0  0  0  0  0  0  0  0  0
   -5.6296   26.3623    3.0738 C   0  0  0  0  0  0  0  0  0  0  0  0
   -5.7303   25.0072    2.4258 C   0  0  0  0  0  0  0  0  0  0  0  0
   -5.6323   24.8646    1.0946 N   0  0  0  0  0  0  0  0  0  0  0  0
   -5.7775   23.5481    0.8886 N   0  0  0  0  0  0  0  0  0  0  0  0
   -5.9162   22.8291    2.0371 C   0  0  0  0  0  0  0  0  0  0  0  0
   -5.8820   23.7494    3.0618 C   0  0  0  0  0  0  0  0  0  0  0  0
   -5.7639   23.2066   -0.0689 H   0  0  0  0  0  0  0  0  0  0  0  0
   -6.0667   21.3690    2.0001 C   0  0  0  0  0  0  0  0  0  0  0  0
   -7.3406   20.9883    2.2754 F   0  0  0  0  0  0  0  0  0  0  0  0
   -5.7567   20.8610    0.7829 F   0  0  0  0  0  0  0  0  0  0  0  0
   -5.2662   20.7560    2.9051 F   0  0  0  0  0  0  0  0  0  0  0  0
 11 12  1  0  0  0
 12  1  1  0  0  0
  1  2  2  0  0  0
  2  3  1  0  0  0
  3  4  2  0  0  0
  4  5  1  0  0  0
  5  6  2  0  0  0
  6 13  1  0  0  0
 13 14  1  0  0  0
  4  7  1  0  0  0
  7  8  1  0  0  0
  8 15  1  0  0  0
 15 16  1  0  0  0
 16 17  2  0  0  0
 17 18  1  0  0  0
 18 19  1  0  0  0
 19 22  1  0  0  0
 22 23  1  0  0  0
 22 24  1  0  0  0
 22 25  1  0  0  0
 19 20  2  0  0  0
  8  9  1  0  0  0
  9 10  1  0  0  0
  6  1  1  0  0  0
 20 16  1  0  0  0
 10  3  1  0  0  0
 18 21  1  0  0  0
M  END
> <minimizedAffinity>
-8.40886

$$$$
OCNT-2317813


 24 26  0  0  0  0  0  0  0  0999 V2000
   -2.2956   27.4366    7.7603 N   0  0  0  0  0  0  0  0  0  0  0  0
   -2.3867   26.6799    8.4287 H   0  0  0  0  0  0  0  0  0  0  0  0
   -1.0705   26.0471    4.6596 C   0  0  0  0  0  0  0  0  0  0  0  0
   -1.1134   26.4698    5.9389 N   0  0  0  0  0  0  0  0  0  0  0  0
   -2.2564   26.9863    6.4418 C   0  0  0  0  0  0  0  0  0  0  0  0
   -3.3749   27.0794    5.5905 C   0  0  0  0  0  0  0  0  0  0  0  0
   -4.7108   27.5822    5.7687 C   0  0  0  0  0  0  0  0  0  0  0  0
   -5.4792   27.4650    4.6309 C   0  0  0  0  0  0  0  0  0  0  0  0
   -4.6046   26.7582    3.3434 S   0  0  0  0  0  0  0  0  0  0  0  0
   -3.1998   26.6108    4.2989 C   0  0  0  0  0  0  0  0  0  0  0  0
   -2.0786   26.0874    3.7817 N   0  0  0  0  0  0  0  0  0  0  0  0
    1.0279   26.5874    3.4226 C   0  0  0  0  0  0  0  0  0  0  0  0
    0.2475   25.5153    4.1654 C   0  0  0  0  0  0  0  0  0  0  0  0
   -1.3516   28.4783    8.1527 C   0  0  0  0  0  0  0  0  0  0  0  0
   -2.0080   29.8802    8.2840 C   0  0  0  0  0  0  0  0  0  0  0  0
   -2.0277   30.4654    6.9687 O   0  0  0  0  0  0  0  0  0  0  0  0
   -3.4615   29.8300    8.7770 C   0  0  0  0  0  0  0  0  0  0  0  0
   -4.1336   31.2096    8.7956 C   0  0  0  0  0  0  0  0  0  0  0  0
   -3.1799   32.3441    9.1439 C   0  0  0  0  0  0  0  0  0  0  0  0
   -2.7894   32.9842    8.0127 F   0  0  0  0  0  0  0  0  0  0  0  0
   -3.8490   33.2712    9.8798 F   0  0  0  0  0  0  0  0  0  0  0  0
   -1.9558   31.8875    9.9110 C   0  0  0  0  0  0  0  0  0  0  0  0
   -1.1500   30.8161    9.1680 C   0  0  0  0  0  0  0  0  0  0  0  0
   -2.6284   29.9400    6.4106 H   0  0  0  0  0  0  0  0  0  0  0  0
 12 13  1  0  0  0
 13  3  1  0  0  0
  3  4  2  0  0  0
  4  5  1  0  0  0
  5  1  1  0  0  0
  1 14  1  0  0  0
 14 15  1  0  0  0
 15 16  1  0  0  0
 15 17  1  0  0  0
 17 18  1  0  0  0
 18 19  1  0  0  0
 19 20  1  0  0  0
 19 21  1  0  0  0
 19 22  1  0  0  0
 22 23  1  0  0  0
  5  6  2  0  0  0
  6  7  1  0  0  0
  7  8  2  0  0  0
  8  9  1  0  0  0
  9 10  1  0  0  0
 10 11  2  0  0  0
 11  3  1  0  0  0
 23 15  1  0  0  0
 10  6  1  0  0  0
  1  2  1  0  0  0
 16 24  1  0  0  0
M  END
> <minimizedAffinity>
-9.08010

$$$$
OCNT-2317818


 25 27  0  0  0  0  0  0  0  0999 V2000
   -3.6466   26.6452    3.8235 N   0  0  0  0  0  0  0  0  0  0  0  0
   -2.6670   26.4895    4.7663 C   0  0  0  0  0  0  0  0  0  0  0  0
   -1.6248   25.8838    4.5319 O   0  0  0  0  0  0  0  0  0  0  0  0
   -2.9382   27.0652    5.9988 N   0  0  0  0  0  0  0  0  0  0  0  0
   -4.0544   27.9625    6.2982 C   0  0  0  0  0  0  0  0  0  0  0  0
   -3.5750   29.2553    6.9562 C   0  0  0  0  0  0  0  0  0  0  0  0
   -2.6686   28.9578    8.1567 C   0  0  0  0  0  0  0  0  0  0  0  0
   -1.5065   28.0445    7.7491 C   0  0  0  0  0  0  0  0  0  0  0  0
   -2.0440   26.7680    7.1157 C   0  0  0  0  0  0  0  0  0  0  0  0
   -4.5880   26.6534    4.1771 H   0  0  0  0  0  0  0  0  0  0  0  0
   -2.2072   30.1754    8.8088 N   0  0  0  0  0  0  0  0  0  0  0  0
   -2.9516   31.0536    9.5475 C   0  0  0  0  0  0  0  0  0  0  0  0
   -2.0652   32.0320    9.9350 C   0  0  0  0  0  0  0  0  0  0  0  0
   -0.8095   31.7712    9.4537 N   0  0  0  0  0  0  0  0  0  0  0  0
   -0.9245   30.6489    8.7798 C   0  0  0  0  0  0  0  0  0  0  0  0
   -3.4888   26.1060    2.4900 C   0  0  0  0  0  0  0  0  0  0  0  0
   -6.1788   22.7873    1.8121 C   0  0  0  0  0  0  0  0  0  0  0  0
   -6.4864   24.0551    1.3257 C   0  0  0  0  0  0  0  0  0  0  0  0
   -5.6140   25.1264    1.5502 C   0  0  0  0  0  0  0  0  0  0  0  0
   -4.4179   24.9444    2.2553 C   0  0  0  0  0  0  0  0  0  0  0  0
   -4.1183   23.6716    2.7515 C   0  0  0  0  0  0  0  0  0  0  0  0
   -4.9909   22.6036    2.5257 C   0  0  0  0  0  0  0  0  0  0  0  0
   -6.9276   21.6536    1.6587 O   0  0  0  0  0  0  0  0  0  0  0  0
   -8.3761   21.6181    3.6053 C   0  0  0  0  0  0  0  0  0  0  0  0
   -7.2872   20.9057    2.8194 C   0  0  0  0  0  0  0  0  0  0  0  0
 24 25  1  0  0  0
 25 23  1  0  0  0
 23 17  1  0  0  0
 17 18  1  0  0  0
 18 19  2  0  0  0
 19 20  1  0  0  0
 20 16  1  0  0  0
 16  1  1  0  0  0
  1  2  1  0  0  0
  2  3  2  0  0  0
  2  4  1  0  0  0
  4  5  1  0  0  0
  5  6  1  0  0  0
  6  7  1  0  0  0
  7 11  1  0  0  0
 11 12  1  0  0  0
 12 13  2  0  0  0
 13 14  1  0  0  0
 14 15  2  0  0  0
  7  8  1  0  0  0
  8  9  1  0  0  0
 20 21  2  0  0  0
 21 22  1  0  0  0
 22 17  2  0  0  0
  9  4  1  0  0  0
 15 11  1  0  0  0
  1 10  1  0  0  0
M  END
> <minimizedAffinity>
-8.40277

$$$$
OCNT-2317832


 29 33  0  0  0  0  0  0  0  0999 V2000
   -2.4324   28.2973    7.5483 C   0  0  0  0  0  0  0  0  0  0  0  0
   -1.6768   27.8448    8.4049 O   0  0  0  0  0  0  0  0  0  0  0  0
   -2.6153   27.6574    6.3179 N   0  0  0  0  0  0  0  0  0  0  0  0
   -3.7861   27.8597    5.4559 C   0  0  0  0  0  0  0  0  0  0  0  0
   -4.3320   26.5302    4.9406 C   0  0  0  0  0  0  0  0  0  0  0  0
   -3.2788   25.7253    4.1472 C   0  0  0  0  0  0  0  0  0  0  0  0
   -1.8445   26.0983    4.5700 C   0  0  0  0  0  0  0  0  0  0  0  0
   -1.7752   26.4997    6.0365 C   0  0  0  0  0  0  0  0  0  0  0  0
   -1.7137   31.3544    6.5797 C   0  0  0  0  0  0  0  0  0  0  0  0
   -2.8343   30.7953    7.3648 C   0  0  0  0  0  0  0  0  0  0  0  0
   -3.1718   29.5217    7.7939 C   0  0  0  0  0  0  0  0  0  0  0  0
   -4.3498   29.6755    8.5880 C   0  0  0  0  0  0  0  0  0  0  0  0
   -5.1822   28.8185    9.3320 C   0  0  0  0  0  0  0  0  0  0  0  0
   -6.2971   29.3588    9.9897 C   0  0  0  0  0  0  0  0  0  0  0  0
   -6.5882   30.7229    9.9070 C   0  0  0  0  0  0  0  0  0  0  0  0
   -5.7762   31.5925    9.1698 C   0  0  0  0  0  0  0  0  0  0  0  0
   -4.6734   31.0251    8.5365 C   0  0  0  0  0  0  0  0  0  0  0  0
   -3.7565   31.7020    7.7963 O   0  0  0  0  0  0  0  0  0  0  0  0
   -3.4193   25.8894    2.6212 C   0  0  0  0  0  0  0  0  0  0  0  0
   -4.4992   25.0374    2.0436 C   0  0  0  0  0  0  0  0  0  0  0  0
   -4.8185   23.8177    2.4250 N   0  0  0  0  0  0  0  0  0  0  0  0
   -5.8482   23.4299    1.6023 C   0  0  0  0  0  0  0  0  0  0  0  0
   -6.5595   22.2218    1.5619 C   0  0  0  0  0  0  0  0  0  0  0  0
   -7.5702   22.0695    0.6024 C   0  0  0  0  0  0  0  0  0  0  0  0
   -7.8634   23.0977   -0.2990 C   0  0  0  0  0  0  0  0  0  0  0  0
   -7.1703   24.3137   -0.2661 C   0  0  0  0  0  0  0  0  0  0  0  0
   -6.1719   24.4399    0.7033 C   0  0  0  0  0  0  0  0  0  0  0  0
   -5.3135   25.4603    1.0217 N   0  0  0  0  0  0  0  0  0  0  0  0
   -5.2632   26.3555    0.5582 H   0  0  0  0  0  0  0  0  0  0  0  0
  9 10  1  0  0  0
 10 11  2  0  0  0
 11  1  1  0  0  0
  1  2  2  0  0  0
  1  3  1  0  0  0
  3  4  1  0  0  0
  4  5  1  0  0  0
  5  6  1  0  0  0
  6 19  1  0  0  0
 19 20  1  0  0  0
 20 21  2  0  0  0
 21 22  1  0  0  0
 22 23  2  0  0  0
 23 24  1  0  0  0
 24 25  2  0  0  0
 25 26  1  0  0  0
 26 27  2  0  0  0
 27 28  1  0  0  0
  6  7  1  0  0  0
  7  8  1  0  0  0
 11 12  1  0  0  0
 12 13  2  0  0  0
 13 14  1  0  0  0
 14 15  2  0  0  0
 15 16  1  0  0  0
 16 17  2  0  0  0
 17 18  1  0  0  0
 18 10  1  0  0  0
  8  3  1  0  0  0
 17 12  1  0  0  0
 28 20  1  0  0  0
 27 22  1  0  0  0
 28 29  1  0  0  0
M  END
> <minimizedAffinity>
-11.04220

$$$$
OCNT-2317840


 26 29  0  0  0  0  0  0  0  0999 V2000
   -5.4547   23.9575    5.2953 C   0  0  0  0  0  0  0  0  0  0  0  0
   -5.0523   25.2873    4.6550 C   0  0  0  0  0  0  0  0  0  0  0  0
   -3.9191   25.9831    5.4210 C   0  0  0  0  0  0  0  0  0  0  0  0
   -2.7396   25.7980    4.5701 N   0  0  0  0  0  0  0  0  0  0  0  0
   -3.2475   25.9462    3.2035 C   0  0  0  0  0  0  0  0  0  0  0  0
   -4.4980   25.0757    3.2265 C   0  0  0  0  0  0  0  0  0  0  0  0
   -5.4656   25.4873    2.1218 C   0  0  0  0  0  0  0  0  0  0  0  0
   -5.8412   26.6567    2.0144 O   0  0  0  0  0  0  0  0  0  0  0  0
   -5.9121   24.5072    1.2400 N   0  0  0  0  0  0  0  0  0  0  0  0
   -5.3383   23.1621    1.1052 C   0  0  0  0  0  0  0  0  0  0  0  0
   -6.3618   22.1545    0.5698 C   0  0  0  0  0  0  0  0  0  0  0  0
   -6.9691   22.6228   -0.6408 O   0  0  0  0  0  0  0  0  0  0  0  0
   -7.6619   23.8560   -0.3999 C   0  0  0  0  0  0  0  0  0  0  0  0
   -6.6978   24.9432    0.0796 C   0  0  0  0  0  0  0  0  0  0  0  0
   -1.6528   26.7445    4.8598 C   0  0  0  0  0  0  0  0  0  0  0  0
   -1.0203   26.5758    6.2548 C   0  0  0  0  0  0  0  0  0  0  0  0
   -0.9981   27.8476    7.0720 C   0  0  0  0  0  0  0  0  0  0  0  0
    0.2080   28.5153    7.3134 C   0  0  0  0  0  0  0  0  0  0  0  0
    0.2295   29.6891    8.0715 C   0  0  0  0  0  0  0  0  0  0  0  0
   -0.9536   30.2186    8.6105 C   0  0  0  0  0  0  0  0  0  0  0  0
   -0.9482   31.3950    9.3787 C   0  0  0  0  0  0  0  0  0  0  0  0
   -2.1333   31.9041    9.9126 C   0  0  0  0  0  0  0  0  0  0  0  0
   -3.3379   31.2451    9.6842 C   0  0  0  0  0  0  0  0  0  0  0  0
   -3.3598   30.0764    8.9205 C   0  0  0  0  0  0  0  0  0  0  0  0
   -2.1765   29.5507    8.3772 C   0  0  0  0  0  0  0  0  0  0  0  0
   -2.1824   28.3735    7.6095 C   0  0  0  0  0  0  0  0  0  0  0  0
  1  2  1  0  0  0
  2  3  1  0  0  0
  3  4  1  0  0  0
  4 15  1  0  0  0
 15 16  1  0  0  0
 16 17  1  0  0  0
 17 18  1  0  0  0
 18 19  2  0  0  0
 19 20  1  0  0  0
 20 21  2  0  0  0
 21 22  1  0  0  0
 22 23  2  0  0  0
 23 24  1  0  0  0
 24 25  2  0  0  0
 25 26  1  0  0  0
  4  5  1  0  0  0
  5  6  1  0  0  0
  6  7  1  0  0  0
  7  8  2  0  0  0
  7  9  1  0  0  0
  9 10  1  0  0  0
 10 11  1  0  0  0
 11 12  1  0  0  0
 12 13  1  0  0  0
 13 14  1  0  0  0
  6  2  1  0  0  0
 14  9  1  0  0  0
 26 17  2  0  0  0
 25 20  1  0  0  0
M  END
> <minimizedAffinity>
-10.24684

$$$$
OCNT-2317842


 23 25  0  0  0  0  0  0  0  0999 V2000
   -5.3945   29.7966    6.8696 C   0  0  0  0  0  0  0  0  0  0  0  0
   -6.4615   29.4280    7.9138 C   0  0  0  0  0  0  0  0  0  0  0  0
   -5.6843   29.1231    9.1865 C   0  0  0  0  0  0  0  0  0  0  0  0
   -4.3450   29.7985    8.9676 C   0  0  0  0  0  0  0  0  0  0  0  0
   -4.1065   29.5475    7.5465 N   0  0  0  0  0  0  0  0  0  0  0  0
   -5.8219   27.5075    3.2101 C   0  0  0  0  0  0  0  0  0  0  0  0
   -6.0828   28.8764    3.2111 C   0  0  0  0  0  0  0  0  0  0  0  0
   -5.9449   29.6167    4.3904 C   0  0  0  0  0  0  0  0  0  0  0  0
   -5.5492   29.0025    5.5890 C   0  0  0  0  0  0  0  0  0  0  0  0
   -5.2827   27.6276    5.5758 C   0  0  0  0  0  0  0  0  0  0  0  0
   -5.4197   26.8907    4.3963 C   0  0  0  0  0  0  0  0  0  0  0  0
   -5.9177   26.6688    2.1341 O   0  0  0  0  0  0  0  0  0  0  0  0
   -4.9323   24.7962    1.0401 C   0  0  0  0  0  0  0  0  0  0  0  0
   -5.5339   25.3098    2.3360 C   0  0  0  0  0  0  0  0  0  0  0  0
   -3.0140   30.3388    6.9827 C   0  0  0  0  0  0  0  0  0  0  0  0
   -1.7137   29.9782    7.6039 C   0  0  0  0  0  0  0  0  0  0  0  0
   -0.9685   30.6064    8.5862 C   0  0  0  0  0  0  0  0  0  0  0  0
   -1.2373   31.8673    9.3057 C   0  0  0  0  0  0  0  0  0  0  0  0
    0.1565   29.8712    8.8457 N   0  0  0  0  0  0  0  0  0  0  0  0
    0.1415   28.8037    8.0621 N   0  0  0  0  0  0  0  0  0  0  0  0
   -0.9726   28.8639    7.3114 N   0  0  0  0  0  0  0  0  0  0  0  0
   -1.2282   27.8165    6.3473 C   0  0  0  0  0  0  0  0  0  0  0  0
   -1.9691   26.6408    6.9587 C   0  0  0  0  0  0  0  0  0  0  0  0
 13 14  1  0  0  0
 14 12  1  0  0  0
 12  6  1  0  0  0
  6  7  1  0  0  0
  7  8  2  0  0  0
  8  9  1  0  0  0
  9  1  1  0  0  0
  1  2  1  0  0  0
  2  3  1  0  0  0
  3  4  1  0  0  0
  4  5  1  0  0  0
  5 15  1  0  0  0
 15 16  1  0  0  0
 16 17  2  0  0  0
 17 18  1  0  0  0
 17 19  1  0  0  0
 19 20  2  0  0  0
 20 21  1  0  0  0
 21 22  1  0  0  0
 22 23  1  0  0  0
  9 10  2  0  0  0
 10 11  1  0  0  0
 11  6  2  0  0  0
  5  1  1  0  0  0
 21 16  1  0  0  0
M  END
> <minimizedAffinity>
-8.14919

$$$$
OCNT-2317846


 24 25  0  0  0  0  0  0  0  0999 V2000
   -5.1614   30.2180    5.0497 N   0  0  0  0  0  0  0  0  0  0  0  0
   -4.5304   30.1058    6.2720 C   0  0  0  0  0  0  0  0  0  0  0  0
   -5.0151   29.4784    7.2033 O   0  0  0  0  0  0  0  0  0  0  0  0
   -3.3403   30.7998    6.2652 N   0  0  0  0  0  0  0  0  0  0  0  0
   -4.5457   30.2661    4.2517 H   0  0  0  0  0  0  0  0  0  0  0  0
   -3.2379   31.4406    5.4939 H   0  0  0  0  0  0  0  0  0  0  0  0
   -2.3682   30.8646    7.2908 C   0  0  0  0  0  0  0  0  0  0  0  0
   -1.2844   29.9885    7.3464 C   0  0  0  0  0  0  0  0  0  0  0  0
   -0.3680   30.1208    8.3765 C   0  0  0  0  0  0  0  0  0  0  0  0
   -0.4517   31.0573    9.3403 N   0  0  0  0  0  0  0  0  0  0  0  0
   -1.5030   31.8994    9.2685 C   0  0  0  0  0  0  0  0  0  0  0  0
   -2.4842   31.8584    8.2785 C   0  0  0  0  0  0  0  0  0  0  0  0
   -3.6023   32.8568    8.3160 C   0  0  0  0  0  0  0  0  0  0  0  0
   -6.4072   29.5161    4.8370 C   0  0  0  0  0  0  0  0  0  0  0  0
   -6.0914   25.7297    4.7456 C   0  0  0  0  0  0  0  0  0  0  0  0
   -6.3041   27.0260    5.2120 C   0  0  0  0  0  0  0  0  0  0  0  0
   -6.1505   28.1189    4.3494 C   0  0  0  0  0  0  0  0  0  0  0  0
   -5.7897   27.8695    3.0278 C   0  0  0  0  0  0  0  0  0  0  0  0
   -5.6032   26.5554    2.6395 C   0  0  0  0  0  0  0  0  0  0  0  0
   -5.7513   25.4955    3.4639 N   0  0  0  0  0  0  0  0  0  0  0  0
   -6.2876   24.6692    5.6477 N   0  0  0  0  0  0  0  0  0  0  0  0
   -5.8339   24.9132    6.5238 H   0  0  0  0  0  0  0  0  0  0  0  0
   -5.9145   22.3292    6.3102 C   0  0  0  0  0  0  0  0  0  0  0  0
   -5.8719   23.3483    5.1820 C   0  0  0  0  0  0  0  0  0  0  0  0
 23 24  1  0  0  0
 24 21  1  0  0  0
 21 15  1  0  0  0
 15 16  2  0  0  0
 16 17  1  0  0  0
 17 14  1  0  0  0
 14  1  1  0  0  0
  1  2  1  0  0  0
  2  3  2  0  0  0
  2  4  1  0  0  0
  4  7  1  0  0  0
  7  8  2  0  0  0
  8  9  1  0  0  0
  9 10  2  0  0  0
 10 11  1  0  0  0
 11 12  2  0  0  0
 12 13  1  0  0  0
 17 18  2  0  0  0
 18 19  1  0  0  0
 19 20  2  0  0  0
 20 15  1  0  0  0
 12  7  1  0  0  0
 21 22  1  0  0  0
  1  5  1  0  0  0
  4  6  1  0  0  0
M  END
> <minimizedAffinity>
-8.40324

$$$$
OCNT-2317874


 25 27  0  0  0  0  0  0  0  0999 V2000
   -4.5178   26.1260    4.6828 N   0  0  0  0  0  0  0  0  0  0  0  0
   -4.3088   25.8251    3.3486 C   0  0  0  0  0  0  0  0  0  0  0  0
   -3.3601   26.2198    2.6744 O   0  0  0  0  0  0  0  0  0  0  0  0
   -5.3902   25.7740    5.0837 H   0  0  0  0  0  0  0  0  0  0  0  0
   -5.4699   25.0089    2.7161 C   0  0  0  0  0  0  0  0  0  0  0  0
   -5.7497   25.4635    1.2713 C   0  0  0  0  0  0  0  0  0  0  0  0
   -6.1472   24.1861    0.5469 C   0  0  0  0  0  0  0  0  0  0  0  0
   -7.5304   23.9073    0.7634 O   0  0  0  0  0  0  0  0  0  0  0  0
   -5.2738   23.1256    1.2099 C   0  0  0  0  0  0  0  0  0  0  0  0
   -5.2095   23.5586    2.6032 N   0  0  0  0  0  0  0  0  0  0  0  0
   -5.2424   22.7211    3.6942 C   0  0  0  0  0  0  0  0  0  0  0  0
   -5.0230   21.2513    3.4497 C   0  0  0  0  0  0  0  0  0  0  0  0
   -5.4286   23.1567    4.8315 O   0  0  0  0  0  0  0  0  0  0  0  0
   -7.6639   23.7293    1.7114 H   0  0  0  0  0  0  0  0  0  0  0  0
   -1.6718   30.0623    8.4020 C   0  0  0  0  0  0  0  0  0  0  0  0
   -1.0997   28.9040    8.1563 N   0  0  0  0  0  0  0  0  0  0  0  0
   -1.8925   28.1583    7.3006 C   0  0  0  0  0  0  0  0  0  0  0  0
   -1.6023   26.8680    6.8210 C   0  0  0  0  0  0  0  0  0  0  0  0
   -2.5012   26.2315    5.9559 C   0  0  0  0  0  0  0  0  0  0  0  0
   -3.6878   26.8545    5.5575 C   0  0  0  0  0  0  0  0  0  0  0  0
   -3.9888   28.1381    6.0257 C   0  0  0  0  0  0  0  0  0  0  0  0
   -3.0784   28.7697    6.8954 C   0  0  0  0  0  0  0  0  0  0  0  0
   -3.1791   30.3274    7.6241 S   0  0  0  0  0  0  0  0  0  0  0  0
   -2.1666   31.8957   10.0185 C   0  0  0  0  0  0  0  0  0  0  0  0
   -1.0843   31.1109    9.2940 C   0  0  0  0  0  0  0  0  0  0  0  0
 24 25  1  0  0  0
 25 15  1  0  0  0
 15 16  2  0  0  0
 16 17  1  0  0  0
 17 18  2  0  0  0
 18 19  1  0  0  0
 19 20  2  0  0  0
 20  1  1  0  0  0
  1  2  1  0  0  0
  2  3  2  0  0  0
  2  5  1  0  0  0
  5  6  1  0  0  0
  6  7  1  0  0  0
  7  8  1  0  0  0
  7  9  1  0  0  0
  9 10  1  0  0  0
 10 11  1  0  0  0
 11 12  1  0  0  0
 11 13  2  0  0  0
 20 21  1  0  0  0
 21 22  2  0  0  0
 22 23  1  0  0  0
 23 15  1  0  0  0
 22 17  1  0  0  0
 10  5  1  0  0  0
  1  4  1  0  0  0
  8 14  1  0  0  0
M  END
> <minimizedAffinity>
-8.80289

$$$$
OCNT-2317890


 24 27  0  0  0  0  0  0  0  0999 V2000
   -3.5564   28.2764    6.1747 C   0  0  0  0  0  0  0  0  0  0  0  0
   -4.9280   26.3716    2.6685 C   0  0  0  0  0  0  0  0  0  0  0  0
   -5.9546   27.1635    3.5034 C   0  0  0  0  0  0  0  0  0  0  0  0
   -5.2621   28.1074    4.4804 C   0  0  0  0  0  0  0  0  0  0  0  0
   -4.4969   27.3743    5.5000 N   0  0  0  0  0  0  0  0  0  0  0  0
   -3.8701   26.1481    4.9806 C   0  0  0  0  0  0  0  0  0  0  0  0
   -3.6295   26.1587    3.4694 C   0  0  0  0  0  0  0  0  0  0  0  0
   -6.4600   24.4572    3.0079 O   0  0  0  0  0  0  0  0  0  0  0  0
   -5.5804   25.1270    2.0851 C   0  0  0  0  0  0  0  0  0  0  0  0
   -4.8842   24.2170    1.1083 C   0  0  0  0  0  0  0  0  0  0  0  0
   -6.0472   25.0571    0.6520 C   0  0  0  0  0  0  0  0  0  0  0  0
   -7.2929   24.9479    3.1148 H   0  0  0  0  0  0  0  0  0  0  0  0
   -4.2411   29.2595    7.0502 C   0  0  0  0  0  0  0  0  0  0  0  0
   -5.4089   29.1675    7.7772 C   0  0  0  0  0  0  0  0  0  0  0  0
   -5.6285   30.3278    8.4575 N   0  0  0  0  0  0  0  0  0  0  0  0
   -4.6303   31.1551    8.1859 N   0  0  0  0  0  0  0  0  0  0  0  0
   -3.7834   30.5195    7.3470 N   0  0  0  0  0  0  0  0  0  0  0  0
   -2.5990   31.2154    6.8699 C   0  0  0  0  0  0  0  0  0  0  0  0
   -1.3163   30.5369    7.2891 C   0  0  0  0  0  0  0  0  0  0  0  0
   -0.9707   30.4622    8.6467 C   0  0  0  0  0  0  0  0  0  0  0  0
    0.2040   29.8233    9.0465 C   0  0  0  0  0  0  0  0  0  0  0  0
    1.0414   29.2434    8.0959 C   0  0  0  0  0  0  0  0  0  0  0  0
    0.7030   29.2974    6.7455 C   0  0  0  0  0  0  0  0  0  0  0  0
   -0.4712   29.9355    6.3434 C   0  0  0  0  0  0  0  0  0  0  0  0
  8  9  1  0  0  0
  9  2  1  0  0  0
  2  3  1  0  0  0
  3  4  1  0  0  0
  4  5  1  0  0  0
  5  1  1  0  0  0
  1 13  1  0  0  0
 13 14  2  0  0  0
 14 15  1  0  0  0
 15 16  2  0  0  0
 16 17  1  0  0  0
 17 18  1  0  0  0
 18 19  1  0  0  0
 19 20  2  0  0  0
 20 21  1  0  0  0
 21 22  2  0  0  0
 22 23  1  0  0  0
 23 24  2  0  0  0
  5  6  1  0  0  0
  6  7  1  0  0  0
  9 10  1  0  0  0
 10 11  1  0  0  0
 11  9  1  0  0  0
  7  2  1  0  0  0
 17 13  1  0  0  0
 24 19  1  0  0  0
  8 12  1  0  0  0
M  END
> <minimizedAffinity>
-8.73358

$$$$
OCNT-2317895


 28 30  0  0  0  0  0  0  0  0999 V2000
   -2.4805   25.7010    3.7295 C   0  0  0  0  0  0  0  0  0  0  0  0
   -3.3656   26.5421    4.5147 N   0  0  0  0  0  0  0  0  0  0  0  0
   -2.8620   27.1545    5.6521 C   0  0  0  0  0  0  0  0  0  0  0  0
   -1.6715   27.1273    5.9528 O   0  0  0  0  0  0  0  0  0  0  0  0
   -3.7959   27.8143    6.4091 N   0  0  0  0  0  0  0  0  0  0  0  0
   -4.7069   27.3580    6.4173 H   0  0  0  0  0  0  0  0  0  0  0  0
   -4.6766   26.8435    3.9462 C   0  0  0  0  0  0  0  0  0  0  0  0
   -5.5119   25.5995    3.8917 C   0  0  0  0  0  0  0  0  0  0  0  0
   -5.9917   24.9678    4.9526 N   0  0  0  0  0  0  0  0  0  0  0  0
   -6.6746   23.8829    4.4724 C   0  0  0  0  0  0  0  0  0  0  0  0
   -6.6408   23.8608    3.1010 C   0  0  0  0  0  0  0  0  0  0  0  0
   -5.9064   24.9610    2.7378 N   0  0  0  0  0  0  0  0  0  0  0  0
   -5.6649   25.4004    1.3758 C   0  0  0  0  0  0  0  0  0  0  0  0
   -4.4168   25.0710    0.9577 F   0  0  0  0  0  0  0  0  0  0  0  0
   -6.5315   24.8277    0.5003 F   0  0  0  0  0  0  0  0  0  0  0  0
   -3.4336   28.4918    7.6442 C   0  0  0  0  0  0  0  0  0  0  0  0
   -4.5002   29.5196    8.1678 C   0  0  0  0  0  0  0  0  0  0  0  0
   -5.7086   29.6165    7.1918 C   0  0  0  0  0  0  0  0  0  0  0  0
   -6.7837   30.6174    7.6351 C   0  0  0  0  0  0  0  0  0  0  0  0
   -6.8244   30.8716    9.1405 C   0  0  0  0  0  0  0  0  0  0  0  0
   -6.4043   29.6638    9.9660 C   0  0  0  0  0  0  0  0  0  0  0  0
   -5.1119   28.9756    9.5004 C   0  0  0  0  0  0  0  0  0  0  0  0
   -3.9001   30.8772    8.3499 N   0  0  0  0  0  0  0  0  0  0  0  0
   -3.3603   31.5227    7.1337 C   0  0  0  0  0  0  0  0  0  0  0  0
   -1.8326   31.7073    7.1593 C   0  0  0  0  0  0  0  0  0  0  0  0
   -1.3654   32.4730    8.2762 O   0  0  0  0  0  0  0  0  0  0  0  0
   -2.2248   32.3794    9.4178 C   0  0  0  0  0  0  0  0  0  0  0  0
   -2.9832   31.0438    9.4915 C   0  0  0  0  0  0  0  0  0  0  0  0
  1  2  1  0  0  0
  2  7  1  0  0  0
  7  8  1  0  0  0
  8  9  2  0  0  0
  9 10  1  0  0  0
 10 11  2  0  0  0
 11 12  1  0  0  0
 12 13  1  0  0  0
 13 14  1  0  0  0
 13 15  1  0  0  0
  2  3  1  0  0  0
  3  4  2  0  0  0
  3  5  1  0  0  0
  5 16  1  0  0  0
 16 17  1  0  0  0
 17 23  1  0  0  0
 23 24  1  0  0  0
 24 25  1  0  0  0
 25 26  1  0  0  0
 26 27  1  0  0  0
 27 28  1  0  0  0
 17 18  1  0  0  0
 18 19  1  0  0  0
 19 20  1  0  0  0
 20 21  1  0  0  0
 21 22  1  0  0  0
 12  8  1  0  0  0
 22 17  1  0  0  0
 28 23  1  0  0  0
  5  6  1  0  0  0
M  END
> <minimizedAffinity>
-8.24743

$$$$
OCNT-2317896


 24 26  0  0  0  0  0  0  0  0999 V2000
   -4.4797   28.4889    6.9134 C   0  0  0  0  0  0  0  0  0  0  0  0
   -5.4281   29.1583    7.3113 O   0  0  0  0  0  0  0  0  0  0  0  0
   -4.6251   27.5746    5.8925 N   0  0  0  0  0  0  0  0  0  0  0  0
   -3.7927   27.2404    5.4309 H   0  0  0  0  0  0  0  0  0  0  0  0
   -5.8837   27.4709    5.1861 C   0  0  0  0  0  0  0  0  0  0  0  0
   -5.9385   28.3344    3.9128 C   0  0  0  0  0  0  0  0  0  0  0  0
   -5.5267   27.5187    2.7845 O   0  0  0  0  0  0  0  0  0  0  0  0
   -5.7879   26.2295    3.1895 C   0  0  0  0  0  0  0  0  0  0  0  0
   -5.7970   25.1141    2.3634 C   0  0  0  0  0  0  0  0  0  0  0  0
   -5.4869   25.2945    0.6753 Cl  0  0  0  0  0  0  0  0  0  0  0  0
   -6.0677   23.8710    2.9524 C   0  0  0  0  0  0  0  0  0  0  0  0
   -6.1142   22.4048    2.0340 Cl  0  0  0  0  0  0  0  0  0  0  0  0
   -6.3116   23.7724    4.3370 C   0  0  0  0  0  0  0  0  0  0  0  0
   -6.2846   24.9081    5.1509 C   0  0  0  0  0  0  0  0  0  0  0  0
   -6.0232   26.1315    4.5568 C   0  0  0  0  0  0  0  0  0  0  0  0
   -2.6132   29.6745    8.1949 C   0  0  0  0  0  0  0  0  0  0  0  0
   -3.1164   28.6063    7.4466 C   0  0  0  0  0  0  0  0  0  0  0  0
   -2.0393   27.6683    7.3280 C   0  0  0  0  0  0  0  0  0  0  0  0
   -0.9373   28.1928    7.9595 C   0  0  0  0  0  0  0  0  0  0  0  0
   -1.2879   29.4115    8.4661 N   0  0  0  0  0  0  0  0  0  0  0  0
   -0.6689   30.0230    8.9841 H   0  0  0  0  0  0  0  0  0  0  0  0
   -2.5768   31.5315    9.9054 C   0  0  0  0  0  0  0  0  0  0  0  0
   -3.2636   30.9558    8.6644 C   0  0  0  0  0  0  0  0  0  0  0  0
   -3.2961   31.9878    7.5363 C   0  0  0  0  0  0  0  0  0  0  0  0
 22 23  1  0  0  0
 23 24  1  0  0  0
 23 16  1  0  0  0
 16 17  2  0  0  0
 17  1  1  0  0  0
  1  2  2  0  0  0
  1  3  1  0  0  0
  3  5  1  0  0  0
  5  6  1  0  0  0
  6  7  1  0  0  0
  7  8  1  0  0  0
  8  9  1  0  0  0
  9 10  1  0  0  0
  9 11  2  0  0  0
 11 12  1  0  0  0
 11 13  1  0  0  0
 13 14  2  0  0  0
 14 15  1  0  0  0
 17 18  1  0  0  0
 18 19  2  0  0  0
 19 20  1  0  0  0
 20 16  1  0  0  0
 15  5  1  0  0  0
 15  8  2  0  0  0
  3  4  1  0  0  0
 20 21  1  0  0  0
M  END
> <minimizedAffinity>
-8.42350

$$$$
OCNT-2317901


 30 34  0  0  0  0  0  0  0  0999 V2000
   -4.3010   26.1994    5.2805 O   0  0  0  0  0  0  0  0  0  0  0  0
   -4.3760   27.0758    4.4312 C   0  0  0  0  0  0  0  0  0  0  0  0
   -3.8630   26.9776    3.1650 N   0  0  0  0  0  0  0  0  0  0  0  0
   -4.9921   28.2813    4.6177 N   0  0  0  0  0  0  0  0  0  0  0  0
   -4.3237   27.5555    2.4786 H   0  0  0  0  0  0  0  0  0  0  0  0
   -4.5664   29.0578    4.1251 H   0  0  0  0  0  0  0  0  0  0  0  0
   -5.4995   28.6585    5.9255 C   0  0  0  0  0  0  0  0  0  0  0  0
   -6.8318   29.4403    5.8357 C   0  0  0  0  0  0  0  0  0  0  0  0
   -7.1853   30.1224    7.1720 C   0  0  0  0  0  0  0  0  0  0  0  0
   -6.1296   31.1587    7.5997 C   0  0  0  0  0  0  0  0  0  0  0  0
   -4.7532   30.6415    7.3890 C   0  0  0  0  0  0  0  0  0  0  0  0
   -3.5303   31.0998    7.8143 C   0  0  0  0  0  0  0  0  0  0  0  0
   -2.5973   30.2467    7.2877 N   0  0  0  0  0  0  0  0  0  0  0  0
   -3.1388   29.2713    6.5237 N   0  0  0  0  0  0  0  0  0  0  0  0
   -4.4557   29.5047    6.6036 C   0  0  0  0  0  0  0  0  0  0  0  0
   -1.1603   30.3004    7.4468 C   0  0  0  0  0  0  0  0  0  0  0  0
   -0.6899   30.2246    8.9039 C   0  0  0  0  0  0  0  0  0  0  0  0
    0.6708   29.5230    8.8699 C   0  0  0  0  0  0  0  0  0  0  0  0
    0.9781   29.2616    7.3987 C   0  0  0  0  0  0  0  0  0  0  0  0
   -0.3895   29.1853    6.7388 C   0  0  0  0  0  0  0  0  0  0  0  0
   -3.2783   25.7455    2.6893 C   0  0  0  0  0  0  0  0  0  0  0  0
   -4.3377   24.8108    2.1554 C   0  0  0  0  0  0  0  0  0  0  0  0
   -4.4278   23.4923    2.6346 C   0  0  0  0  0  0  0  0  0  0  0  0
   -5.3828   22.5962    2.1395 C   0  0  0  0  0  0  0  0  0  0  0  0
   -6.2320   23.0778    1.1468 C   0  0  0  0  0  0  0  0  0  0  0  0
   -7.2220   22.3669    0.5364 O   0  0  0  0  0  0  0  0  0  0  0  0
   -7.8093   23.1994   -0.3633 C   0  0  0  0  0  0  0  0  0  0  0  0
   -7.2074   24.4367   -0.3454 C   0  0  0  0  0  0  0  0  0  0  0  0
   -6.1806   24.3682    0.6337 C   0  0  0  0  0  0  0  0  0  0  0  0
   -5.2129   25.2534    1.1404 C   0  0  0  0  0  0  0  0  0  0  0  0
  1  2  2  0  0  0
  2  3  1  0  0  0
  3 21  1  0  0  0
 21 22  1  0  0  0
 22 23  2  0  0  0
 23 24  1  0  0  0
 24 25  2  0  0  0
 25 26  1  0  0  0
 26 27  1  0  0  0
 27 28  2  0  0  0
 28 29  1  0  0  0
 29 30  2  0  0  0
  2  4  1  0  0  0
  4  7  1  0  0  0
  7  8  1  0  0  0
  8  9  1  0  0  0
  9 10  1  0  0  0
 10 11  1  0  0  0
 11 12  2  0  0  0
 12 13  1  0  0  0
 13 16  1  0  0  0
 16 17  1  0  0  0
 17 18  1  0  0  0
 18 19  1  0  0  0
 19 20  1  0  0  0
 13 14  1  0  0  0
 14 15  2  0  0  0
 30 22  1  0  0  0
 15  7  1  0  0  0
 29 25  1  0  0  0
 15 11  1  0  0  0
 20 16  1  0  0  0
  3  5  1  0  0  0
  4  6  1  0  0  0
M  END
> <minimizedAffinity>
-11.26095

$$$$
OCNT-2317904


 26 29  0  0  0  0  0  0  0  0999 V2000
   -5.6639   30.1125    8.4857 O   0  0  0  0  0  0  0  0  0  0  0  0
   -4.8013   29.5340    7.8351 C   0  0  0  0  0  0  0  0  0  0  0  0
   -5.0741   28.7180    6.7682 N   0  0  0  0  0  0  0  0  0  0  0  0
   -4.3315   28.2658    6.2492 H   0  0  0  0  0  0  0  0  0  0  0  0
   -3.3565   29.6545    8.1974 C   0  0  0  0  0  0  0  0  0  0  0  0
   -2.4182   28.8485    7.6631 C   0  0  0  0  0  0  0  0  0  0  0  0
   -1.0824   29.0283    8.0111 N   0  0  0  0  0  0  0  0  0  0  0  0
    0.0083   28.3372    7.6106 N   0  0  0  0  0  0  0  0  0  0  0  0
    1.0438   28.8896    8.2290 N   0  0  0  0  0  0  0  0  0  0  0  0
    0.6519   29.9351    9.0261 N   0  0  0  0  0  0  0  0  0  0  0  0
   -0.6515   30.0217    8.8908 C   0  0  0  0  0  0  0  0  0  0  0  0
   -1.6306   30.8923    9.4373 C   0  0  0  0  0  0  0  0  0  0  0  0
   -2.9246   30.7223    9.1026 C   0  0  0  0  0  0  0  0  0  0  0  0
   -6.4297   28.5671    6.2400 C   0  0  0  0  0  0  0  0  0  0  0  0
   -6.6148   29.4019    4.9766 C   0  0  0  0  0  0  0  0  0  0  0  0
   -5.9696   28.5486    3.8811 C   0  0  0  0  0  0  0  0  0  0  0  0
   -6.0552   27.1701    4.3797 N   0  0  0  0  0  0  0  0  0  0  0  0
   -6.6753   27.1438    5.7100 C   0  0  0  0  0  0  0  0  0  0  0  0
   -5.9408   26.0669    3.5639 C   0  0  0  0  0  0  0  0  0  0  0  0
   -6.1266   24.7628    4.0585 C   0  0  0  0  0  0  0  0  0  0  0  0
   -6.0279   23.6300    3.2377 C   0  0  0  0  0  0  0  0  0  0  0  0
   -5.7444   23.7804    1.8865 C   0  0  0  0  0  0  0  0  0  0  0  0
   -5.6235   22.3916    0.8796 Cl  0  0  0  0  0  0  0  0  0  0  0  0
   -5.5674   25.0564    1.3703 C   0  0  0  0  0  0  0  0  0  0  0  0
   -5.2969   25.2372    0.0684 F   0  0  0  0  0  0  0  0  0  0  0  0
   -5.6675   26.1811    2.1926 C   0  0  0  0  0  0  0  0  0  0  0  0
  1  2  2  0  0  0
  2  3  1  0  0  0
  3 14  1  0  0  0
 14 15  1  0  0  0
 15 16  1  0  0  0
 16 17  1  0  0  0
 17 19  1  0  0  0
 19 20  1  0  0  0
 20 21  2  0  0  0
 21 22  1  0  0  0
 22 23  1  0  0  0
 22 24  2  0  0  0
 24 25  1  0  0  0
 24 26  1  0  0  0
 17 18  1  0  0  0
  2  5  1  0  0  0
  5  6  2  0  0  0
  6  7  1  0  0  0
  7  8  1  0  0  0
  8  9  2  0  0  0
  9 10  1  0  0  0
 10 11  2  0  0  0
 11 12  1  0  0  0
 12 13  2  0  0  0
 18 14  1  0  0  0
 13  5  1  0  0  0
 26 19  2  0  0  0
 11  7  1  0  0  0
  3  4  1  0  0  0
M  END
> <minimizedAffinity>
-9.55716

$$$$
OCNT-2317909


 24 26  0  0  0  0  0  0  0  0999 V2000
   -3.7566   28.3258    8.1360 N   0  0  0  0  0  0  0  0  0  0  0  0
   -3.6877   28.0874    9.1376 H   0  0  0  0  0  0  0  0  0  0  0  0
   -1.0799   25.9808    4.6350 C   0  0  0  0  0  0  0  0  0  0  0  0
   -1.1639   26.9542    5.7850 C   0  0  0  0  0  0  0  0  0  0  0  0
   -0.0749   27.5673    6.1409 N   0  0  0  0  0  0  0  0  0  0  0  0
   -0.1844   28.4447    7.1793 C   0  0  0  0  0  0  0  0  0  0  0  0
    0.7453   29.1883    7.7397 N   0  0  0  0  0  0  0  0  0  0  0  0
    0.0721   29.8614    8.7112 C   0  0  0  0  0  0  0  0  0  0  0  0
   -1.2307   29.6005    8.8107 N   0  0  0  0  0  0  0  0  0  0  0  0
   -1.4050   28.6784    7.8230 N   0  0  0  0  0  0  0  0  0  0  0  0
   -2.5963   28.0222    7.4278 C   0  0  0  0  0  0  0  0  0  0  0  0
   -2.5116   27.1488    6.4082 C   0  0  0  0  0  0  0  0  0  0  0  0
   -4.7153   29.4155    7.8791 C   0  0  0  0  0  0  0  0  0  0  0  0
   -4.9835   30.2403    9.1446 C   0  0  0  0  0  0  0  0  0  0  0  0
   -6.0654   30.6884    9.4943 O   0  0  0  0  0  0  0  0  0  0  0  0
   -3.8777   30.4702    9.8898 O   0  0  0  0  0  0  0  0  0  0  0  0
   -4.2022   30.9768   10.6633 H   0  0  0  0  0  0  0  0  0  0  0  0
   -6.0356   28.8810    7.3012 C   0  0  0  0  0  0  0  0  0  0  0  0
   -6.0112   28.5581    5.8225 C   0  0  0  0  0  0  0  0  0  0  0  0
   -5.9683   27.2292    5.3811 C   0  0  0  0  0  0  0  0  0  0  0  0
   -5.9555   26.9353    4.0165 C   0  0  0  0  0  0  0  0  0  0  0  0
   -5.9862   27.9662    3.0799 C   0  0  0  0  0  0  0  0  0  0  0  0
   -6.0298   29.2917    3.5065 C   0  0  0  0  0  0  0  0  0  0  0  0
   -6.0417   29.5874    4.8707 C   0  0  0  0  0  0  0  0  0  0  0  0
  3  4  1  0  0  0
  4  5  2  0  0  0
  5  6  1  0  0  0
  6  7  2  0  0  0
  7  8  1  0  0  0
  8  9  2  0  0  0
  9 10  1  0  0  0
 10 11  1  0  0  0
 11  1  1  0  0  0
  1 13  1  0  0  0
 13 18  1  0  0  0
 18 19  1  0  0  0
 19 20  2  0  0  0
 20 21  1  0  0  0
 21 22  2  0  0  0
 22 23  1  0  0  0
 23 24  2  0  0  0
 13 14  1  0  0  0
 14 15  2  0  0  0
 14 16  1  0  0  0
 11 12  2  0  0  0
 12  4  1  0  0  0
 10  6  1  0  0  0
 24 19  1  0  0  0
  1  2  1  0  0  0
 16 17  1  0  0  0
M  END
> <minimizedAffinity>
-8.67645

$$$$
OCNT-2317923


 24 26  0  0  0  0  0  0  0  0999 V2000
   -5.9219   28.6868    7.1101 C   0  0  0  0  0  0  0  0  0  0  0  0
   -5.9454   28.4993    5.6151 C   0  0  0  0  0  0  0  0  0  0  0  0
   -6.1071   29.6027    4.7687 C   0  0  0  0  0  0  0  0  0  0  0  0
   -6.1105   29.4352    3.3860 C   0  0  0  0  0  0  0  0  0  0  0  0
   -5.9462   28.1629    2.8349 C   0  0  0  0  0  0  0  0  0  0  0  0
   -5.7702   27.0365    3.6543 C   0  0  0  0  0  0  0  0  0  0  0  0
   -5.7699   27.2259    5.0482 C   0  0  0  0  0  0  0  0  0  0  0  0
   -5.5912   25.6990    3.0725 C   0  0  0  0  0  0  0  0  0  0  0  0
   -5.7624   25.4584    1.7034 C   0  0  0  0  0  0  0  0  0  0  0  0
   -5.5895   24.1751    1.1868 C   0  0  0  0  0  0  0  0  0  0  0  0
   -5.2473   23.1564    2.0589 C   0  0  0  0  0  0  0  0  0  0  0  0
   -5.0696   23.3351    3.3838 N   0  0  0  0  0  0  0  0  0  0  0  0
   -5.2421   24.5954    3.8530 C   0  0  0  0  0  0  0  0  0  0  0  0
   -3.9762   30.0689    7.7340 C   0  0  0  0  0  0  0  0  0  0  0  0
   -4.6044   31.1103    7.5666 O   0  0  0  0  0  0  0  0  0  0  0  0
   -4.5663   28.8339    7.5858 N   0  0  0  0  0  0  0  0  0  0  0  0
   -3.9813   28.0138    7.5708 H   0  0  0  0  0  0  0  0  0  0  0  0
    1.0101   29.1768    8.1992 C   0  0  0  0  0  0  0  0  0  0  0  0
   -0.3798   29.6753    8.3253 C   0  0  0  0  0  0  0  0  0  0  0  0
   -0.6766   30.6201    9.2195 N   0  0  0  0  0  0  0  0  0  0  0  0
   -2.0014   30.8196    9.0660 N   0  0  0  0  0  0  0  0  0  0  0  0
   -2.6565   31.8001    9.9030 C   0  0  0  0  0  0  0  0  0  0  0  0
   -2.5733   30.0372    8.0878 C   0  0  0  0  0  0  0  0  0  0  0  0
   -1.5221   29.2777    7.5978 C   0  0  0  0  0  0  0  0  0  0  0  0
 18 19  1  0  0  0
 19 20  2  0  0  0
 20 21  1  0  0  0
 21 22  1  0  0  0
 21 23  1  0  0  0
 23 14  1  0  0  0
 14 15  2  0  0  0
 14 16  1  0  0  0
 16  1  1  0  0  0
  1  2  1  0  0  0
  2  3  2  0  0  0
  3  4  1  0  0  0
  4  5  2  0  0  0
  5  6  1  0  0  0
  6  8  1  0  0  0
  8  9  1  0  0  0
  9 10  2  0  0  0
 10 11  1  0  0  0
 11 12  2  0  0  0
 12 13  1  0  0  0
  6  7  2  0  0  0
 23 24  2  0  0  0
 24 19  1  0  0  0
  7  2  1  0  0  0
 13  8  2  0  0  0
 16 17  1  0  0  0
M  END
> <minimizedAffinity>
-9.44574

$$$$
OCNT-2317940


 25 28  0  0  0  0  0  0  0  0999 V2000
   -5.5703   28.6711    5.3903 C   0  0  0  0  0  0  0  0  0  0  0  0
   -1.3449   29.7785    8.6586 N   0  0  0  0  0  0  0  0  0  0  0  0
   -1.7107   30.8789    9.3641 N   0  0  0  0  0  0  0  0  0  0  0  0
   -2.9384   31.1556    8.9041 C   0  0  0  0  0  0  0  0  0  0  0  0
   -3.3469   30.2465    7.9223 C   0  0  0  0  0  0  0  0  0  0  0  0
   -2.3062   29.3651    7.7772 C   0  0  0  0  0  0  0  0  0  0  0  0
   -2.2339   28.3073    6.9355 N   0  0  0  0  0  0  0  0  0  0  0  0
   -3.3079   28.1669    6.2168 C   0  0  0  0  0  0  0  0  0  0  0  0
   -4.4418   28.9792    6.2601 N   0  0  0  0  0  0  0  0  0  0  0  0
   -4.5263   30.0821    7.1219 C   0  0  0  0  0  0  0  0  0  0  0  0
   -5.4888   30.8375    7.2018 O   0  0  0  0  0  0  0  0  0  0  0  0
    0.8733   29.3309    7.6901 C   0  0  0  0  0  0  0  0  0  0  0  0
   -0.0491   29.1720    8.8852 C   0  0  0  0  0  0  0  0  0  0  0  0
   -5.3902   27.3416    4.6301 C   0  0  0  0  0  0  0  0  0  0  0  0
   -5.8776   27.4739    3.1830 C   0  0  0  0  0  0  0  0  0  0  0  0
   -5.5730   26.2203    2.3546 C   0  0  0  0  0  0  0  0  0  0  0  0
   -5.5101   24.9288    3.1938 C   0  0  0  0  0  0  0  0  0  0  0  0
   -6.4605   25.0092    4.3953 C   0  0  0  0  0  0  0  0  0  0  0  0
   -6.1058   26.1707    5.3320 C   0  0  0  0  0  0  0  0  0  0  0  0
   -5.7414   23.6975    2.3364 C   0  0  0  0  0  0  0  0  0  0  0  0
   -6.2437   23.7921    1.0295 C   0  0  0  0  0  0  0  0  0  0  0  0
   -6.4426   22.6460    0.2567 C   0  0  0  0  0  0  0  0  0  0  0  0
   -6.1397   21.3907    0.7780 C   0  0  0  0  0  0  0  0  0  0  0  0
   -5.6358   21.2805    2.0716 C   0  0  0  0  0  0  0  0  0  0  0  0
   -5.4364   22.4258    2.8453 C   0  0  0  0  0  0  0  0  0  0  0  0
 12 13  1  0  0  0
 13  2  1  0  0  0
  2  3  1  0  0  0
  3  4  2  0  0  0
  4  5  1  0  0  0
  5  6  2  0  0  0
  6  7  1  0  0  0
  7  8  2  0  0  0
  8  9  1  0  0  0
  9  1  1  0  0  0
  1 14  1  0  0  0
 14 15  1  0  0  0
 15 16  1  0  0  0
 16 17  1  0  0  0
 17 20  1  0  0  0
 20 21  2  0  0  0
 21 22  1  0  0  0
 22 23  2  0  0  0
 23 24  1  0  0  0
 24 25  2  0  0  0
 17 18  1  0  0  0
 18 19  1  0  0  0
  9 10  1  0  0  0
 10 11  2  0  0  0
  6  2  1  0  0  0
 19 14  1  0  0  0
 10  5  1  0  0  0
 25 20  1  0  0  0
M  END
> <minimizedAffinity>
-9.61640

$$$$
OCNT-2317957


 24 26  0  0  0  0  0  0  0  0999 V2000
   -5.8040   25.2028    2.8383 N   0  0  0  0  0  0  0  0  0  0  0  0
   -6.0956   24.7350    4.1952 C   0  0  0  0  0  0  0  0  0  0  0  0
   -4.9045   24.9812    5.1116 C   0  0  0  0  0  0  0  0  0  0  0  0
   -4.4512   26.4519    5.1417 C   0  0  0  0  0  0  0  0  0  0  0  0
   -5.0797   27.2615    3.9890 C   0  0  0  0  0  0  0  0  0  0  0  0
   -5.0996   26.4840    2.6769 C   0  0  0  0  0  0  0  0  0  0  0  0
   -2.9244   26.5242    5.0932 C   0  0  0  0  0  0  0  0  0  0  0  0
   -2.3093   25.8235    4.2787 O   0  0  0  0  0  0  0  0  0  0  0  0
   -2.2207   27.2996    5.9932 N   0  0  0  0  0  0  0  0  0  0  0  0
   -0.7505   27.1867    6.0080 C   0  0  0  0  0  0  0  0  0  0  0  0
   -0.2442   27.9240    7.2443 C   0  0  0  0  0  0  0  0  0  0  0  0
   -1.4547   28.7122    7.6296 C   0  0  0  0  0  0  0  0  0  0  0  0
   -1.5095   29.7007    8.6055 C   0  0  0  0  0  0  0  0  0  0  0  0
   -2.7324   30.3181    8.8432 C   0  0  0  0  0  0  0  0  0  0  0  0
   -2.8498   31.5508   10.0367 Cl  0  0  0  0  0  0  0  0  0  0  0  0
   -3.8678   29.9471    8.1156 C   0  0  0  0  0  0  0  0  0  0  0  0
   -3.7968   28.9419    7.1384 C   0  0  0  0  0  0  0  0  0  0  0  0
   -2.5863   28.3115    6.9041 C   0  0  0  0  0  0  0  0  0  0  0  0
   -5.9222   24.1627    1.5403 S   0  0  0  0  0  0  0  0  0  0  0  0
   -4.6957   23.4054    1.4675 O   0  0  0  0  0  0  0  0  0  0  0  0
   -7.2187   23.5328    1.5483 O   0  0  0  0  0  0  0  0  0  0  0  0
   -6.9331   25.2943   -0.7030 C   0  0  0  0  0  0  0  0  0  0  0  0
   -5.8606   25.2446    0.2779 N   0  0  0  0  0  0  0  0  0  0  0  0
   -5.3937   26.1136    0.5181 H   0  0  0  0  0  0  0  0  0  0  0  0
 22 23  1  0  0  0
 23 19  1  0  0  0
 19 20  2  0  0  0
 19 21  2  0  0  0
 19  1  1  0  0  0
  1  2  1  0  0  0
  2  3  1  0  0  0
  3  4  1  0  0  0
  4  7  1  0  0  0
  7  8  2  0  0  0
  7  9  1  0  0  0
  9 10  1  0  0  0
 10 11  1  0  0  0
 11 12  1  0  0  0
 12 13  1  0  0  0
 13 14  2  0  0  0
 14 15  1  0  0  0
 14 16  1  0  0  0
 16 17  2  0  0  0
 17 18  1  0  0  0
  4  5  1  0  0  0
  5  6  1  0  0  0
  6  1  1  0  0  0
 18  9  1  0  0  0
 18 12  2  0  0  0
 23 24  1  0  0  0
M  END
> <minimizedAffinity>
-8.39717

$$$$
OCNT-2317970


 25 26  0  0  0  0  0  0  0  0999 V2000
   -2.1103   27.7546    6.2819 C   0  0  0  0  0  0  0  0  0  0  0  0
   -3.2545   28.5446    6.9469 C   0  0  0  0  0  0  0  0  0  0  0  0
   -2.8827   29.9299    7.2528 N   0  0  0  0  0  0  0  0  0  0  0  0
   -3.7716   30.9118    7.6725 C   0  0  0  0  0  0  0  0  0  0  0  0
   -3.4547   32.1057    7.6206 O   0  0  0  0  0  0  0  0  0  0  0  0
   -1.5505   30.3236    6.7998 C   0  0  0  0  0  0  0  0  0  0  0  0
   -0.4785   29.2770    7.2064 C   0  0  0  0  0  0  0  0  0  0  0  0
    0.7719   29.4506    6.3398 C   0  0  0  0  0  0  0  0  0  0  0  0
   -0.1069   29.4489    8.6838 C   0  0  0  0  0  0  0  0  0  0  0  0
   -0.9118   27.9059    7.0642 O   0  0  0  0  0  0  0  0  0  0  0  0
   -5.1298   30.4885    8.3350 C   0  0  0  0  0  0  0  0  0  0  0  0
   -4.9345   29.1439    9.0577 C   0  0  0  0  0  0  0  0  0  0  0  0
   -5.5855   31.4154    9.3267 O   0  0  0  0  0  0  0  0  0  0  0  0
   -6.2741   30.9766    9.8556 H   0  0  0  0  0  0  0  0  0  0  0  0
   -6.2382   30.3830    7.2647 C   0  0  0  0  0  0  0  0  0  0  0  0
   -6.7706   28.9666    7.0187 C   0  0  0  0  0  0  0  0  0  0  0  0
   -6.4506   28.5014    5.6178 C   0  0  0  0  0  0  0  0  0  0  0  0
   -6.3295   29.4259    4.5719 C   0  0  0  0  0  0  0  0  0  0  0  0
   -6.0146   28.9963    3.2818 C   0  0  0  0  0  0  0  0  0  0  0  0
   -5.8139   27.6410    3.0265 C   0  0  0  0  0  0  0  0  0  0  0  0
   -5.9268   26.7140    4.0609 C   0  0  0  0  0  0  0  0  0  0  0  0
   -6.2419   27.1416    5.3515 C   0  0  0  0  0  0  0  0  0  0  0  0
   -2.4759   26.2636    6.1998 C   0  0  0  0  0  0  0  0  0  0  0  0
   -1.2743   25.9322    4.1623 C   0  0  0  0  0  0  0  0  0  0  0  0
   -2.5040   25.7650    4.8558 O   0  0  0  0  0  0  0  0  0  0  0  0
 24 25  1  0  0  0
 25 23  1  0  0  0
 23  1  1  0  0  0
  1  2  1  0  0  0
  2  3  1  0  0  0
  3  4  1  0  0  0
  4  5  2  0  0  0
  4 11  1  0  0  0
 11 12  1  0  0  0
 11 13  1  0  0  0
 11 15  1  0  0  0
 15 16  1  0  0  0
 16 17  1  0  0  0
 17 18  2  0  0  0
 18 19  1  0  0  0
 19 20  2  0  0  0
 20 21  1  0  0  0
 21 22  2  0  0  0
  3  6  1  0  0  0
  6  7  1  0  0  0
  7  8  1  0  0  0
  7  9  1  0  0  0
  7 10  1  0  0  0
 10  1  1  0  0  0
 22 17  1  0  0  0
 13 14  1  0  0  0
M  END
> <minimizedAffinity>
-8.85601

$$$$
OCNT-2317981


 25 27  0  0  0  0  0  0  0  0999 V2000
   -4.0864   30.1563    7.9734 N   0  0  0  0  0  0  0  0  0  0  0  0
   -4.8706   29.0863    8.5494 C   0  0  0  0  0  0  0  0  0  0  0  0
   -6.1800   29.0895    7.7948 C   0  0  0  0  0  0  0  0  0  0  0  0
   -5.8287   29.6349    6.4167 C   0  0  0  0  0  0  0  0  0  0  0  0
   -4.5680   30.4779    6.6808 C   0  0  0  0  0  0  0  0  0  0  0  0
   -4.0994   31.2378    5.8441 O   0  0  0  0  0  0  0  0  0  0  0  0
   -5.6057   28.6671    5.3166 N   0  0  0  0  0  0  0  0  0  0  0  0
   -6.1889   29.1461    4.0544 C   0  0  0  0  0  0  0  0  0  0  0  0
   -5.7412   28.2753    2.8792 C   0  0  0  0  0  0  0  0  0  0  0  0
   -6.0429   26.7965    3.1214 C   0  0  0  0  0  0  0  0  0  0  0  0
   -5.5135   26.3311    4.4874 C   0  0  0  0  0  0  0  0  0  0  0  0
   -4.0683   26.4127    4.4525 O   0  0  0  0  0  0  0  0  0  0  0  0
   -6.0181   27.2766    5.6014 C   0  0  0  0  0  0  0  0  0  0  0  0
   -3.8420   27.3298    4.7145 H   0  0  0  0  0  0  0  0  0  0  0  0
   -5.9951   24.9005    4.7909 C   0  0  0  0  0  0  0  0  0  0  0  0
   -7.2213   24.8923    5.3623 F   0  0  0  0  0  0  0  0  0  0  0  0
   -5.1502   24.2383    5.6117 F   0  0  0  0  0  0  0  0  0  0  0  0
   -6.0905   24.1754    3.6476 F   0  0  0  0  0  0  0  0  0  0  0  0
   -2.6817   31.9321    9.1135 C   0  0  0  0  0  0  0  0  0  0  0  0
   -2.9151   30.6914    8.5333 C   0  0  0  0  0  0  0  0  0  0  0  0
   -1.4648   29.7759    8.4961 S   0  0  0  0  0  0  0  0  0  0  0  0
   -0.5554   30.9975    9.2556 C   0  0  0  0  0  0  0  0  0  0  0  0
   -1.3234   32.1020    9.5322 C   0  0  0  0  0  0  0  0  0  0  0  0
   -4.4823   33.7594    9.4867 N   0  0  0  0  0  0  0  0  0  0  0  0
   -3.6695   32.9489    9.3146 C   0  0  0  0  0  0  0  0  0  0  0  0
 24 25  3  0  0  0
 25 19  1  0  0  0
 19 20  2  0  0  0
 20  1  1  0  0  0
  1  2  1  0  0  0
  2  3  1  0  0  0
  3  4  1  0  0  0
  4  7  1  0  0  0
  7  8  1  0  0  0
  8  9  1  0  0  0
  9 10  1  0  0  0
 10 11  1  0  0  0
 11 12  1  0  0  0
 11 15  1  0  0  0
 15 16  1  0  0  0
 15 17  1  0  0  0
 15 18  1  0  0  0
 11 13  1  0  0  0
  4  5  1  0  0  0
  5  6  2  0  0  0
 20 21  1  0  0  0
 21 22  1  0  0  0
 22 23  2  0  0  0
 23 19  1  0  0  0
  5  1  1  0  0  0
 13  7  1  0  0  0
 12 14  1  0  0  0
M  END
> <minimizedAffinity>
-8.32072

$$$$
OCNT-2317996


 26 28  0  0  0  0  0  0  0  0999 V2000
   -4.4029   26.7587    3.5174 N   0  0  0  0  0  0  0  0  0  0  0  0
   -4.4384   27.6446    3.0166 H   0  0  0  0  0  0  0  0  0  0  0  0
    0.3642   25.4079    4.0671 C   0  0  0  0  0  0  0  0  0  0  0  0
   -0.8937   26.0219    4.6088 C   0  0  0  0  0  0  0  0  0  0  0  0
   -0.9093   26.5984    5.8830 C   0  0  0  0  0  0  0  0  0  0  0  0
   -2.0716   27.2148    6.3557 C   0  0  0  0  0  0  0  0  0  0  0  0
   -3.2251   27.2313    5.5604 C   0  0  0  0  0  0  0  0  0  0  0  0
   -3.2447   26.6385    4.2914 C   0  0  0  0  0  0  0  0  0  0  0  0
   -2.0526   26.0757    3.8162 C   0  0  0  0  0  0  0  0  0  0  0  0
   -2.1346   27.8500    7.6976 C   0  0  0  0  0  0  0  0  0  0  0  0
   -3.3742   28.0485    8.2412 N   0  0  0  0  0  0  0  0  0  0  0  0
   -1.1228   28.1555    8.3155 O   0  0  0  0  0  0  0  0  0  0  0  0
   -3.3815   28.3489    9.2080 H   0  0  0  0  0  0  0  0  0  0  0  0
   -4.1831   27.5429    7.9100 H   0  0  0  0  0  0  0  0  0  0  0  0
   -5.6908   26.3945    4.0904 C   0  0  0  0  0  0  0  0  0  0  0  0
   -5.8152   24.8865    4.1113 C   0  0  0  0  0  0  0  0  0  0  0  0
   -5.6817   24.2240    5.3393 C   0  0  0  0  0  0  0  0  0  0  0  0
   -5.7894   22.8417    5.3865 C   0  0  0  0  0  0  0  0  0  0  0  0
   -5.6477   22.1172    6.6909 C   0  0  0  0  0  0  0  0  0  0  0  0
   -6.0188   22.0969    4.2850 N   0  0  0  0  0  0  0  0  0  0  0  0
   -6.1328   22.7304    3.0913 C   0  0  0  0  0  0  0  0  0  0  0  0
   -6.0145   24.1197    2.9457 C   0  0  0  0  0  0  0  0  0  0  0  0
   -6.1600   24.7699    1.5899 C   0  0  0  0  0  0  0  0  0  0  0  0
   -6.0439   23.7990    0.4159 C   0  0  0  0  0  0  0  0  0  0  0  0
   -6.8701   22.5484    0.6749 C   0  0  0  0  0  0  0  0  0  0  0  0
   -6.3371   21.8232    1.9049 C   0  0  0  0  0  0  0  0  0  0  0  0
  3  4  1  0  0  0
  4  5  2  0  0  0
  5  6  1  0  0  0
  6 10  1  0  0  0
 10 11  1  0  0  0
 10 12  2  0  0  0
  6  7  2  0  0  0
  7  8  1  0  0  0
  8  1  1  0  0  0
  1 15  1  0  0  0
 15 16  1  0  0  0
 16 17  2  0  0  0
 17 18  1  0  0  0
 18 19  1  0  0  0
 18 20  2  0  0  0
 20 21  1  0  0  0
 21 22  2  0  0  0
 22 23  1  0  0  0
 23 24  1  0  0  0
 24 25  1  0  0  0
 25 26  1  0  0  0
  8  9  2  0  0  0
  9  4  1  0  0  0
 22 16  1  0  0  0
 26 21  1  0  0  0
 11 13  1  0  0  0
 11 14  1  0  0  0
  1  2  1  0  0  0
M  END
> <minimizedAffinity>
-9.36839

$$$$
OCNT-2318002


 25 28  0  0  0  0  0  0  0  0999 V2000
   -3.9525   30.2362    7.0196 C   0  0  0  0  0  0  0  0  0  0  0  0
   -5.0455   30.3969    7.7878 N   0  0  0  0  0  0  0  0  0  0  0  0
   -6.0512   29.5423    7.5531 C   0  0  0  0  0  0  0  0  0  0  0  0
   -6.0063   28.5615    6.5893 C   0  0  0  0  0  0  0  0  0  0  0  0
   -4.8541   28.4672    5.8298 C   0  0  0  0  0  0  0  0  0  0  0  0
   -3.8182   29.2932    6.0629 N   0  0  0  0  0  0  0  0  0  0  0  0
   -4.7297   27.4868    4.8456 N   0  0  0  0  0  0  0  0  0  0  0  0
   -3.9616   26.2693    5.1790 C   0  0  0  0  0  0  0  0  0  0  0  0
   -4.7133   24.9624    4.8266 C   0  0  0  0  0  0  0  0  0  0  0  0
   -5.1647   24.9525    3.4259 N   0  0  0  0  0  0  0  0  0  0  0  0
   -5.6360   26.2458    2.8851 C   0  0  0  0  0  0  0  0  0  0  0  0
   -5.9192   27.2766    4.0011 C   0  0  0  0  0  0  0  0  0  0  0  0
   -5.4856   23.7728    2.7689 C   0  0  0  0  0  0  0  0  0  0  0  0
   -5.0777   22.5140    3.2385 C   0  0  0  0  0  0  0  0  0  0  0  0
   -5.4002   21.3296    2.5631 C   0  0  0  0  0  0  0  0  0  0  0  0
   -6.1383   21.3752    1.3871 C   0  0  0  0  0  0  0  0  0  0  0  0
   -6.5494   22.6047    0.8889 C   0  0  0  0  0  0  0  0  0  0  0  0
   -6.2236   23.7826    1.5724 C   0  0  0  0  0  0  0  0  0  0  0  0
   -2.7948   31.1791    7.2365 C   0  0  0  0  0  0  0  0  0  0  0  0
    0.9753   29.1930    7.9252 C   0  0  0  0  0  0  0  0  0  0  0  0
    0.5138   29.3806    6.6236 C   0  0  0  0  0  0  0  0  0  0  0  0
   -0.7061   30.0206    6.4000 C   0  0  0  0  0  0  0  0  0  0  0  0
   -1.4796   30.4733    7.4786 C   0  0  0  0  0  0  0  0  0  0  0  0
   -0.9995   30.2904    8.7832 C   0  0  0  0  0  0  0  0  0  0  0  0
    0.2207   29.6499    9.0044 C   0  0  0  0  0  0  0  0  0  0  0  0
 20 21  2  0  0  0
 21 22  1  0  0  0
 22 23  2  0  0  0
 23 19  1  0  0  0
 19  1  1  0  0  0
  1  2  2  0  0  0
  2  3  1  0  0  0
  3  4  2  0  0  0
  4  5  1  0  0  0
  5  7  1  0  0  0
  7  8  1  0  0  0
  8  9  1  0  0  0
  9 10  1  0  0  0
 10 13  1  0  0  0
 13 14  2  0  0  0
 14 15  1  0  0  0
 15 16  2  0  0  0
 16 17  1  0  0  0
 17 18  2  0  0  0
 10 11  1  0  0  0
 11 12  1  0  0  0
  5  6  2  0  0  0
 23 24  1  0  0  0
 24 25  2  0  0  0
 25 20  1  0  0  0
  6  1  1  0  0  0
 12  7  1  0  0  0
 18 13  1  0  0  0
M  END
> <minimizedAffinity>
-9.69617

$$$$
OCNT-2318019


 26 28  0  0  0  0  0  0  0  0999 V2000
   -4.7058   26.1194    4.2795 C   0  0  0  0  0  0  0  0  0  0  0  0
   -1.8879   26.0577    5.4267 C   0  0  0  0  0  0  0  0  0  0  0  0
   -2.7807   27.1978    5.5807 N   0  0  0  0  0  0  0  0  0  0  0  0
   -2.3550   28.1829    6.5611 C   0  0  0  0  0  0  0  0  0  0  0  0
   -4.1466   27.1523    5.2913 C   0  0  0  0  0  0  0  0  0  0  0  0
   -4.9383   27.9375    5.8297 O   0  0  0  0  0  0  0  0  0  0  0  0
   -4.4367   26.5278    2.8745 N   0  0  0  0  0  0  0  0  0  0  0  0
   -5.3185   26.7968    2.4379 H   0  0  0  0  0  0  0  0  0  0  0  0
   -3.8854   25.4135    2.0921 C   0  0  0  0  0  0  0  0  0  0  0  0
   -5.0061   24.5867    1.5008 C   0  0  0  0  0  0  0  0  0  0  0  0
   -5.8679   25.1777    0.5508 C   0  0  0  0  0  0  0  0  0  0  0  0
   -6.9236   24.4712   -0.0215 C   0  0  0  0  0  0  0  0  0  0  0  0
   -7.1730   23.1460    0.3335 C   0  0  0  0  0  0  0  0  0  0  0  0
   -6.3279   22.5610    1.2821 C   0  0  0  0  0  0  0  0  0  0  0  0
   -5.2607   23.2422    1.8713 C   0  0  0  0  0  0  0  0  0  0  0  0
   -4.6420   22.3279    2.7751 C   0  0  0  0  0  0  0  0  0  0  0  0
   -5.3280   21.1376    2.7136 C   0  0  0  0  0  0  0  0  0  0  0  0
   -6.3438   21.2892    1.8096 N   0  0  0  0  0  0  0  0  0  0  0  0
   -7.0117   20.5745    1.5564 H   0  0  0  0  0  0  0  0  0  0  0  0
   -6.2031   25.8308    4.5123 C   0  0  0  0  0  0  0  0  0  0  0  0
   -6.4629   24.4286    5.0179 C   0  0  0  0  0  0  0  0  0  0  0  0
   -7.6596   23.7699    4.7050 C   0  0  0  0  0  0  0  0  0  0  0  0
   -7.9039   22.4827    5.1857 C   0  0  0  0  0  0  0  0  0  0  0  0
   -6.9575   21.8437    5.9857 C   0  0  0  0  0  0  0  0  0  0  0  0
   -5.7651   22.4905    6.3048 C   0  0  0  0  0  0  0  0  0  0  0  0
   -5.5179   23.7776    5.8246 C   0  0  0  0  0  0  0  0  0  0  0  0
  2  3  1  0  0  0
  3  4  1  0  0  0
  3  5  1  0  0  0
  5  6  2  0  0  0
  5  1  1  0  0  0
  1 20  1  0  0  0
 20 21  1  0  0  0
 21 22  2  0  0  0
 22 23  1  0  0  0
 23 24  2  0  0  0
 24 25  1  0  0  0
 25 26  2  0  0  0
  1  7  1  0  0  0
  7  9  1  0  0  0
  9 10  1  0  0  0
 10 11  1  0  0  0
 11 12  2  0  0  0
 12 13  1  0  0  0
 13 14  2  0  0  0
 14 15  1  0  0  0
 15 16  1  0  0  0
 16 17  2  0  0  0
 17 18  1  0  0  0
 26 21  1  0  0  0
 15 10  2  0  0  0
 18 14  1  0  0  0
  7  8  1  0  0  0
 18 19  1  0  0  0
M  END
> <minimizedAffinity>
-8.14720

$$$$
OCNT-2318020


 28 31  0  0  0  0  0  0  0  0999 V2000
   -3.8791   26.7370    4.2324 N   0  0  0  0  0  0  0  0  0  0  0  0
   -2.8251   26.5728    5.1210 C   0  0  0  0  0  0  0  0  0  0  0  0
   -1.7339   26.1247    4.7872 O   0  0  0  0  0  0  0  0  0  0  0  0
   -3.1013   26.9369    6.4158 N   0  0  0  0  0  0  0  0  0  0  0  0
   -3.6525   27.7760    6.4736 H   0  0  0  0  0  0  0  0  0  0  0  0
   -5.7865   28.2272    3.6195 C   0  0  0  0  0  0  0  0  0  0  0  0
   -5.2228   27.2007    4.5915 C   0  0  0  0  0  0  0  0  0  0  0  0
   -3.6423   26.3810    2.8305 C   0  0  0  0  0  0  0  0  0  0  0  0
   -4.4214   25.1626    2.3930 C   0  0  0  0  0  0  0  0  0  0  0  0
   -4.1924   23.9135    3.0175 C   0  0  0  0  0  0  0  0  0  0  0  0
   -4.8961   22.7706    2.6257 C   0  0  0  0  0  0  0  0  0  0  0  0
   -5.8204   22.9045    1.6137 C   0  0  0  0  0  0  0  0  0  0  0  0
   -6.5921   21.9077    1.1041 O   0  0  0  0  0  0  0  0  0  0  0  0
   -7.3484   22.6310    0.1116 C   0  0  0  0  0  0  0  0  0  0  0  0
   -7.0030   24.0299    0.0318 O   0  0  0  0  0  0  0  0  0  0  0  0
   -6.0549   24.1138    1.0034 C   0  0  0  0  0  0  0  0  0  0  0  0
   -5.3775   25.2585    1.3682 C   0  0  0  0  0  0  0  0  0  0  0  0
   -2.0765   26.8296    7.4396 C   0  0  0  0  0  0  0  0  0  0  0  0
   -1.4413   28.1426    7.7435 C   0  0  0  0  0  0  0  0  0  0  0  0
   -0.1919   28.4632    7.4649 N   0  0  0  0  0  0  0  0  0  0  0  0
    0.0326   29.7484    7.8835 N   0  0  0  0  0  0  0  0  0  0  0  0
   -1.0836   30.2061    8.4042 C   0  0  0  0  0  0  0  0  0  0  0  0
   -1.2865   31.5428    9.0171 C   0  0  0  0  0  0  0  0  0  0  0  0
   -2.3186   32.3811    8.2687 C   0  0  0  0  0  0  0  0  0  0  0  0
   -3.7638   31.9514    8.5260 C   0  0  0  0  0  0  0  0  0  0  0  0
   -4.1318   30.5761    7.9684 C   0  0  0  0  0  0  0  0  0  0  0  0
   -3.4388   29.4086    8.6715 C   0  0  0  0  0  0  0  0  0  0  0  0
   -2.0551   29.2442    8.2906 N   0  0  0  0  0  0  0  0  0  0  0  0
  6  7  1  0  0  0
  7  1  1  0  0  0
  1  8  1  0  0  0
  8  9  1  0  0  0
  9 10  1  0  0  0
 10 11  2  0  0  0
 11 12  1  0  0  0
 12 13  1  0  0  0
 13 14  1  0  0  0
 14 15  1  0  0  0
 15 16  1  0  0  0
 16 17  1  0  0  0
  1  2  1  0  0  0
  2  3  2  0  0  0
  2  4  1  0  0  0
  4 18  1  0  0  0
 18 19  1  0  0  0
 19 20  2  0  0  0
 20 21  1  0  0  0
 21 22  2  0  0  0
 22 23  1  0  0  0
 23 24  1  0  0  0
 24 25  1  0  0  0
 25 26  1  0  0  0
 26 27  1  0  0  0
 27 28  1  0  0  0
 17  9  2  0  0  0
 28 19  1  0  0  0
 16 12  2  0  0  0
 28 22  1  0  0  0
  4  5  1  0  0  0
M  END
> <minimizedAffinity>
-9.72901

$$$$
OCNT-2318022


 31 33  0  0  0  0  0  0  0  0999 V2000
   -1.3639   26.2221    4.8103 N   0  0  0  0  0  0  0  0  0  0  0  0
   -0.4470   25.5253    3.9212 C   0  0  0  0  0  0  0  0  0  0  0  0
   -0.8892   27.3286    5.4910 C   0  0  0  0  0  0  0  0  0  0  0  0
    0.2739   27.7142    5.4197 O   0  0  0  0  0  0  0  0  0  0  0  0
   -1.8223   27.9843    6.2536 N   0  0  0  0  0  0  0  0  0  0  0  0
   -2.7613   27.9547    5.8854 H   0  0  0  0  0  0  0  0  0  0  0  0
   -1.4623   29.2022    6.9786 C   0  0  0  0  0  0  0  0  0  0  0  0
   -0.8083   28.8381    8.3114 C   0  0  0  0  0  0  0  0  0  0  0  0
   -0.3764   30.0754    9.0988 C   0  0  0  0  0  0  0  0  0  0  0  0
   -1.0586   31.3677    8.6448 C   0  0  0  0  0  0  0  0  0  0  0  0
   -2.4615   31.0989    8.3168 N   0  0  0  0  0  0  0  0  0  0  0  0
   -2.6790   30.1379    7.2069 C   0  0  0  0  0  0  0  0  0  0  0  0
   -3.3673   32.1751    8.3103 C   0  0  0  0  0  0  0  0  0  0  0  0
   -4.0952   32.4721    7.1411 C   0  0  0  0  0  0  0  0  0  0  0  0
   -5.0133   33.5285    7.0853 C   0  0  0  0  0  0  0  0  0  0  0  0
   -5.2284   34.3159    8.2090 C   0  0  0  0  0  0  0  0  0  0  0  0
   -4.5275   34.0328    9.3716 C   0  0  0  0  0  0  0  0  0  0  0  0
   -4.7298   34.7874   10.4607 F   0  0  0  0  0  0  0  0  0  0  0  0
   -3.6138   32.9806    9.4308 C   0  0  0  0  0  0  0  0  0  0  0  0
   -2.6096   25.5257    5.1312 C   0  0  0  0  0  0  0  0  0  0  0  0
   -5.3289   25.0215    1.7915 C   0  0  0  0  0  0  0  0  0  0  0  0
   -4.5162   23.9681    2.2237 C   0  0  0  0  0  0  0  0  0  0  0  0
   -3.6444   24.1450    3.3017 C   0  0  0  0  0  0  0  0  0  0  0  0
   -3.5528   25.3844    3.9542 C   0  0  0  0  0  0  0  0  0  0  0  0
   -4.3736   26.4352    3.5147 C   0  0  0  0  0  0  0  0  0  0  0  0
   -5.2497   26.2600    2.4376 C   0  0  0  0  0  0  0  0  0  0  0  0
   -7.7855   23.2384   -0.4810 C   0  0  0  0  0  0  0  0  0  0  0  0
   -6.8627   23.5605    0.5795 N   0  0  0  0  0  0  0  0  0  0  0  0
   -6.2316   24.7854    0.6308 C   0  0  0  0  0  0  0  0  0  0  0  0
   -6.3649   25.6516   -0.2263 O   0  0  0  0  0  0  0  0  0  0  0  0
   -6.6767   22.8589    1.2804 H   0  0  0  0  0  0  0  0  0  0  0  0
 27 28  1  0  0  0
 28 29  1  0  0  0
 29 30  2  0  0  0
 29 21  1  0  0  0
 21 22  1  0  0  0
 22 23  2  0  0  0
 23 24  1  0  0  0
 24 20  1  0  0  0
 20  1  1  0  0  0
  1  2  1  0  0  0
  1  3  1  0  0  0
  3  4  2  0  0  0
  3  5  1  0  0  0
  5  7  1  0  0  0
  7  8  1  0  0  0
  8  9  1  0  0  0
  9 10  1  0  0  0
 10 11  1  0  0  0
 11 13  1  0  0  0
 13 14  2  0  0  0
 14 15  1  0  0  0
 15 16  2  0  0  0
 16 17  1  0  0  0
 17 18  1  0  0  0
 17 19  2  0  0  0
 11 12  1  0  0  0
 24 25  2  0  0  0
 25 26  1  0  0  0
 26 21  2  0  0  0
 12  7  1  0  0  0
 19 13  1  0  0  0
 28 31  1  0  0  0
  5  6  1  0  0  0
M  END
> <minimizedAffinity>
-9.45766

$$$$
