OCNT-2314176


 24 26  0  0  0  0  0  0  0  0999 V2000
   -5.7312   27.2907    3.3208 C   0  0  0  0  0  0  0  0  0  0  0  0
   -6.0195   26.7480    4.5758 C   0  0  0  0  0  0  0  0  0  0  0  0
   -6.4245   27.5629    5.6360 C   0  0  0  0  0  0  0  0  0  0  0  0
   -6.5510   28.9446    5.4543 C   0  0  0  0  0  0  0  0  0  0  0  0
   -6.2640   29.4858    4.1931 C   0  0  0  0  0  0  0  0  0  0  0  0
   -5.8577   28.6652    3.1339 C   0  0  0  0  0  0  0  0  0  0  0  0
   -5.3486   26.3713    2.3874 O   0  0  0  0  0  0  0  0  0  0  0  0
   -5.8674   25.0394    2.4683 C   0  0  0  0  0  0  0  0  0  0  0  0
   -5.2530   23.4671    0.8207 F   0  0  0  0  0  0  0  0  0  0  0  0
   -6.1698   24.4235    1.1097 C   0  0  0  0  0  0  0  0  0  0  0  0
   -6.1212   25.3306    0.1109 F   0  0  0  0  0  0  0  0  0  0  0  0
   -7.3848   23.8338    1.0822 F   0  0  0  0  0  0  0  0  0  0  0  0
   -6.9828   29.8368    6.5910 C   0  0  0  0  0  0  0  0  0  0  0  0
   -5.9591   29.9253    7.6156 N   0  0  0  0  0  0  0  0  0  0  0  0
   -4.8209   30.6773    7.6058 C   0  0  0  0  0  0  0  0  0  0  0  0
   -4.1900   30.3465    8.7877 C   0  0  0  0  0  0  0  0  0  0  0  0
   -4.9606   29.4314    9.4600 N   0  0  0  0  0  0  0  0  0  0  0  0
   -6.0374   29.1764    8.7305 N   0  0  0  0  0  0  0  0  0  0  0  0
   -2.9157   30.8303    9.3711 C   0  0  0  0  0  0  0  0  0  0  0  0
   -1.7863   30.0662    8.8724 N   0  0  0  0  0  0  0  0  0  0  0  0
   -1.8362   28.8513    8.2453 C   0  0  0  0  0  0  0  0  0  0  0  0
   -0.5238   28.5343    7.9839 C   0  0  0  0  0  0  0  0  0  0  0  0
    0.3152   29.5171    8.4439 N   0  0  0  0  0  0  0  0  0  0  0  0
   -0.4717   30.4217    8.9811 C   0  0  0  0  0  0  0  0  0  0  0  0
  9 10  1  0  0  0
 10 11  1  0  0  0
 10 12  1  0  0  0
 10  8  1  0  0  0
  8  7  1  0  0  0
  7  1  1  0  0  0
  1  2  1  0  0  0
  2  3  2  0  0  0
  3  4  1  0  0  0
  4 13  1  0  0  0
 13 14  1  0  0  0
 14 15  1  0  0  0
 15 16  2  0  0  0
 16 19  1  0  0  0
 19 20  1  0  0  0
 20 21  1  0  0  0
 21 22  2  0  0  0
 22 23  1  0  0  0
 23 24  2  0  0  0
 16 17  1  0  0  0
 17 18  2  0  0  0
  4  5  2  0  0  0
  5  6  1  0  0  0
  6  1  2  0  0  0
 18 14  1  0  0  0
 24 20  1  0  0  0
M  END
> <minimizedAffinity>
-8.48636

$$$$
OCNT-2314178


 23 26  0  0  0  0  0  0  0  0999 V2000
   -5.0753   24.8344    2.6134 C   0  0  0  0  0  0  0  0  0  0  0  0
   -3.8978   25.6727    2.1162 C   0  0  0  0  0  0  0  0  0  0  0  0
   -3.3997   26.3777    3.3822 C   0  0  0  0  0  0  0  0  0  0  0  0
   -4.5225   26.3351    4.3370 N   0  0  0  0  0  0  0  0  0  0  0  0
   -5.7026   25.7685    3.6584 C   0  0  0  0  0  0  0  0  0  0  0  0
   -4.7264   27.5087    5.0682 C   0  0  0  0  0  0  0  0  0  0  0  0
   -5.9172   28.1304    4.9722 N   0  0  0  0  0  0  0  0  0  0  0  0
   -6.0748   29.2846    5.6353 C   0  0  0  0  0  0  0  0  0  0  0  0
   -5.1605   29.8947    6.3948 N   0  0  0  0  0  0  0  0  0  0  0  0
   -3.9938   29.2404    6.5126 C   0  0  0  0  0  0  0  0  0  0  0  0
   -3.7277   28.0246    5.8892 C   0  0  0  0  0  0  0  0  0  0  0  0
   -2.3942   27.3825    6.1439 C   0  0  0  0  0  0  0  0  0  0  0  0
   -1.9825   27.4946    7.6165 C   0  0  0  0  0  0  0  0  0  0  0  0
   -2.2631   28.8547    8.2693 C   0  0  0  0  0  0  0  0  0  0  0  0
   -2.9073   29.8766    7.3374 C   0  0  0  0  0  0  0  0  0  0  0  0
   -6.6386   23.0340    1.6223 C   0  0  0  0  0  0  0  0  0  0  0  0
   -7.4787   22.6155    0.5816 C   0  0  0  0  0  0  0  0  0  0  0  0
   -7.6881   23.4247   -0.5362 C   0  0  0  0  0  0  0  0  0  0  0  0
   -7.0628   24.6613   -0.6241 C   0  0  0  0  0  0  0  0  0  0  0  0
   -6.2283   25.0894    0.4071 C   0  0  0  0  0  0  0  0  0  0  0  0
   -6.0013   24.2892    1.5450 C   0  0  0  0  0  0  0  0  0  0  0  0
   -5.5455   21.1625    2.6318 C   0  0  0  0  0  0  0  0  0  0  0  0
   -6.3973   22.2941    2.7481 O   0  0  0  0  0  0  0  0  0  0  0  0
 22 23  1  0  0  0
 23 16  1  0  0  0
 16 17  2  0  0  0
 17 18  1  0  0  0
 18 19  2  0  0  0
 19 20  1  0  0  0
 20 21  2  0  0  0
 21  1  1  0  0  0
  1  2  1  0  0  0
  2  3  1  0  0  0
  3  4  1  0  0  0
  4  6  1  0  0  0
  6  7  1  0  0  0
  7  8  2  0  0  0
  8  9  1  0  0  0
  9 10  2  0  0  0
 10 11  1  0  0  0
 11 12  1  0  0  0
 12 13  1  0  0  0
 13 14  1  0  0  0
 14 15  1  0  0  0
  4  5  1  0  0  0
 21 16  1  0  0  0
  5  1  1  0  0  0
 11  6  2  0  0  0
 15 10  1  0  0  0
M  END
> <minimizedAffinity>
-9.01570

$$$$
OCNT-2314182


 25 27  0  0  0  0  0  0  0  0999 V2000
   -5.8767   25.6416    3.5570 C   0  0  0  0  0  0  0  0  0  0  0  0
   -5.7244   26.7105    2.6598 C   0  0  0  0  0  0  0  0  0  0  0  0
   -5.8185   28.0373    3.0931 C   0  0  0  0  0  0  0  0  0  0  0  0
   -6.0743   28.3283    4.4380 C   0  0  0  0  0  0  0  0  0  0  0  0
   -6.2168   27.2685    5.3420 C   0  0  0  0  0  0  0  0  0  0  0  0
   -6.1225   25.9436    4.9055 C   0  0  0  0  0  0  0  0  0  0  0  0
   -6.0895   22.5616    1.3557 C   0  0  0  0  0  0  0  0  0  0  0  0
   -5.5943   21.5848    2.2208 C   0  0  0  0  0  0  0  0  0  0  0  0
   -5.1920   21.9202    3.5118 C   0  0  0  0  0  0  0  0  0  0  0  0
   -5.2837   23.2426    3.9460 C   0  0  0  0  0  0  0  0  0  0  0  0
   -5.7790   24.2461    3.0982 C   0  0  0  0  0  0  0  0  0  0  0  0
   -6.1800   23.8846    1.7972 C   0  0  0  0  0  0  0  0  0  0  0  0
   -7.2906   22.9358   -0.6622 C   0  0  0  0  0  0  0  0  0  0  0  0
   -6.4459   22.0994    0.1182 O   0  0  0  0  0  0  0  0  0  0  0  0
   -6.1545   29.7536    4.9192 C   0  0  0  0  0  0  0  0  0  0  0  0
   -4.9638   30.1185    5.6441 N   0  0  0  0  0  0  0  0  0  0  0  0
   -4.9560   30.3360    7.0038 C   0  0  0  0  0  0  0  0  0  0  0  0
   -5.9614   30.3754    7.7038 O   0  0  0  0  0  0  0  0  0  0  0  0
   -4.0568   29.9957    5.2045 H   0  0  0  0  0  0  0  0  0  0  0  0
   -3.5908   30.5167    7.5925 C   0  0  0  0  0  0  0  0  0  0  0  0
   -3.4629   30.7746    8.9403 C   0  0  0  0  0  0  0  0  0  0  0  0
   -2.1738   30.9207    9.3853 C   0  0  0  0  0  0  0  0  0  0  0  0
   -1.0965   30.8231    8.5830 N   0  0  0  0  0  0  0  0  0  0  0  0
   -1.3407   30.5678    7.2882 C   0  0  0  0  0  0  0  0  0  0  0  0
   -2.5465   30.4055    6.7317 N   0  0  0  0  0  0  0  0  0  0  0  0
 13 14  1  0  0  0
 14  7  1  0  0  0
  7  8  1  0  0  0
  8  9  2  0  0  0
  9 10  1  0  0  0
 10 11  2  0  0  0
 11  1  1  0  0  0
  1  2  1  0  0  0
  2  3  2  0  0  0
  3  4  1  0  0  0
  4 15  1  0  0  0
 15 16  1  0  0  0
 16 17  1  0  0  0
 17 18  2  0  0  0
 17 20  1  0  0  0
 20 21  1  0  0  0
 21 22  2  0  0  0
 22 23  1  0  0  0
 23 24  2  0  0  0
 24 25  1  0  0  0
  4  5  2  0  0  0
  5  6  1  0  0  0
 11 12  1  0  0  0
 12  7  2  0  0  0
  6  1  2  0  0  0
 25 20  2  0  0  0
 16 19  1  0  0  0
M  END
> <minimizedAffinity>
-9.41255

$$$$
OCNT-2314210


 23 25  0  0  0  0  0  0  0  0999 V2000
   -2.1470   27.3593    7.8750 N   0  0  0  0  0  0  0  0  0  0  0  0
   -2.1428   26.5772    8.5201 H   0  0  0  0  0  0  0  0  0  0  0  0
    0.3905   25.6446    4.1593 C   0  0  0  0  0  0  0  0  0  0  0  0
   -0.9356   26.0838    4.7021 C   0  0  0  0  0  0  0  0  0  0  0  0
   -0.9564   26.4951    5.9920 N   0  0  0  0  0  0  0  0  0  0  0  0
   -2.1150   26.9328    6.5450 C   0  0  0  0  0  0  0  0  0  0  0  0
   -3.2502   26.9514    5.7265 C   0  0  0  0  0  0  0  0  0  0  0  0
   -4.6089   27.3178    5.8226 C   0  0  0  0  0  0  0  0  0  0  0  0
   -5.2861   27.1157    4.6865 N   0  0  0  0  0  0  0  0  0  0  0  0
   -4.3412   26.6286    3.8478 N   0  0  0  0  0  0  0  0  0  0  0  0
   -4.7006   26.2955    2.4926 C   0  0  0  0  0  0  0  0  0  0  0  0
   -3.1052   26.5112    4.4240 C   0  0  0  0  0  0  0  0  0  0  0  0
   -1.9769   26.0650    3.8491 N   0  0  0  0  0  0  0  0  0  0  0  0
   -1.1919   28.4065    8.2066 C   0  0  0  0  0  0  0  0  0  0  0  0
   -1.9419   29.6643    8.5690 C   0  0  0  0  0  0  0  0  0  0  0  0
   -3.3316   29.7481    8.3864 C   0  0  0  0  0  0  0  0  0  0  0  0
   -4.0106   30.9203    8.7126 C   0  0  0  0  0  0  0  0  0  0  0  0
   -5.3383   30.9669    8.5304 F   0  0  0  0  0  0  0  0  0  0  0  0
   -3.3222   32.0223    9.2178 C   0  0  0  0  0  0  0  0  0  0  0  0
   -4.1587   33.4711    9.6218 Cl  0  0  0  0  0  0  0  0  0  0  0  0
   -1.9430   31.9556    9.3988 C   0  0  0  0  0  0  0  0  0  0  0  0
   -1.2677   30.7817    9.0719 C   0  0  0  0  0  0  0  0  0  0  0  0
    0.0595   30.7365    9.2516 F   0  0  0  0  0  0  0  0  0  0  0  0
  3  4  1  0  0  0
  4  5  2  0  0  0
  5  6  1  0  0  0
  6  1  1  0  0  0
  1 14  1  0  0  0
 14 15  1  0  0  0
 15 16  2  0  0  0
 16 17  1  0  0  0
 17 18  1  0  0  0
 17 19  2  0  0  0
 19 20  1  0  0  0
 19 21  1  0  0  0
 21 22  2  0  0  0
 22 23  1  0  0  0
  6  7  2  0  0  0
  7  8  1  0  0  0
  8  9  2  0  0  0
  9 10  1  0  0  0
 10 11  1  0  0  0
 10 12  1  0  0  0
 12 13  2  0  0  0
 13  4  1  0  0  0
 22 15  1  0  0  0
 12  7  1  0  0  0
  1  2  1  0  0  0
M  END
> <minimizedAffinity>
-9.04327

$$$$
OCNT-2314213


 33 35  0  0  0  0  0  0  0  0999 V2000
   -6.0441   27.2896    4.3706 C   0  0  0  0  0  0  0  0  0  0  0  0
   -5.7238   27.5763    3.0314 C   0  0  0  0  0  0  0  0  0  0  0  0
   -5.8725   28.8682    2.5323 C   0  0  0  0  0  0  0  0  0  0  0  0
   -6.3201   29.8838    3.3696 C   0  0  0  0  0  0  0  0  0  0  0  0
   -6.6278   29.6100    4.7042 C   0  0  0  0  0  0  0  0  0  0  0  0
   -6.5202   28.3056    5.2274 C   0  0  0  0  0  0  0  0  0  0  0  0
   -6.8902   25.0599    4.8223 N   0  0  0  0  0  0  0  0  0  0  0  0
   -5.8079   25.9080    4.8716 C   0  0  0  0  0  0  0  0  0  0  0  0
   -4.7058   25.5812    5.2936 O   0  0  0  0  0  0  0  0  0  0  0  0
   -7.7663   25.3759    4.4210 H   0  0  0  0  0  0  0  0  0  0  0  0
   -6.7755   23.6424    5.1160 C   0  0  0  0  0  0  0  0  0  0  0  0
   -5.4076   21.6282    4.4938 C   0  0  0  0  0  0  0  0  0  0  0  0
   -6.1618   22.8426    3.9611 C   0  0  0  0  0  0  0  0  0  0  0  0
   -7.2395   22.3895    2.9949 C   0  0  0  0  0  0  0  0  0  0  0  0
   -7.8172   21.3121    3.0488 O   0  0  0  0  0  0  0  0  0  0  0  0
   -7.4738   23.3688    2.0794 O   0  0  0  0  0  0  0  0  0  0  0  0
   -6.7076   23.4412    0.8495 C   0  0  0  0  0  0  0  0  0  0  0  0
   -5.6780   24.5747    0.9016 C   0  0  0  0  0  0  0  0  0  0  0  0
   -6.0602   22.0914    0.5202 C   0  0  0  0  0  0  0  0  0  0  0  0
   -7.7434   23.7682   -0.2366 C   0  0  0  0  0  0  0  0  0  0  0  0
   -6.8400   28.0269    6.6844 C   0  0  0  0  0  0  0  0  0  0  0  0
   -5.9095   28.6673    7.6052 N   0  0  0  0  0  0  0  0  0  0  0  0
   -4.6371   29.0936    7.3479 C   0  0  0  0  0  0  0  0  0  0  0  0
   -4.2170   29.6302    8.5450 C   0  0  0  0  0  0  0  0  0  0  0  0
   -5.2341   29.5193    9.4616 N   0  0  0  0  0  0  0  0  0  0  0  0
   -6.2694   28.9371    8.8725 N   0  0  0  0  0  0  0  0  0  0  0  0
   -2.9269   30.2291    8.8432 C   0  0  0  0  0  0  0  0  0  0  0  0
   -2.8145   31.4564    9.5155 C   0  0  0  0  0  0  0  0  0  0  0  0
   -1.5599   32.0099    9.7901 C   0  0  0  0  0  0  0  0  0  0  0  0
   -0.4021   31.3432    9.3951 C   0  0  0  0  0  0  0  0  0  0  0  0
   -0.5033   30.1256    8.7270 C   0  0  0  0  0  0  0  0  0  0  0  0
    0.9273   29.3024    8.2390 Cl  0  0  0  0  0  0  0  0  0  0  0  0
   -1.7525   29.5690    8.4506 C   0  0  0  0  0  0  0  0  0  0  0  0
 12 13  1  0  0  0
 13 11  1  0  0  0
 11  7  1  0  0  0
  7  8  1  0  0  0
  8  9  2  0  0  0
  8  1  1  0  0  0
  1  2  2  0  0  0
  2  3  1  0  0  0
  3  4  2  0  0  0
  4  5  1  0  0  0
  5  6  2  0  0  0
  6 21  1  0  0  0
 21 22  1  0  0  0
 22 23  1  0  0  0
 23 24  2  0  0  0
 24 27  1  0  0  0
 27 28  2  0  0  0
 28 29  1  0  0  0
 29 30  2  0  0  0
 30 31  1  0  0  0
 31 32  1  0  0  0
 31 33  2  0  0  0
 24 25  1  0  0  0
 25 26  2  0  0  0
 13 14  1  0  0  0
 14 15  2  0  0  0
 14 16  1  0  0  0
 16 17  1  0  0  0
 17 18  1  0  0  0
 17 19  1  0  0  0
 17 20  1  0  0  0
  6  1  1  0  0  0
 26 22  1  0  0  0
 33 27  1  0  0  0
  7 10  1  0  0  0
M  END
> <minimizedAffinity>
-9.80623

$$$$
OCNT-2314219


 22 24  0  0  0  0  0  0  0  0999 V2000
   -5.9526   28.3578    7.1027 N   0  0  0  0  0  0  0  0  0  0  0  0
   -5.4817   27.5222    7.4405 H   0  0  0  0  0  0  0  0  0  0  0  0
   -5.9644   28.2974    5.7101 C   0  0  0  0  0  0  0  0  0  0  0  0
   -6.0599   29.4975    5.0764 N   0  0  0  0  0  0  0  0  0  0  0  0
   -6.0602   29.5318    3.7259 C   0  0  0  0  0  0  0  0  0  0  0  0
   -5.9830   28.4982    2.8676 N   0  0  0  0  0  0  0  0  0  0  0  0
   -5.8917   27.3349    3.5342 C   0  0  0  0  0  0  0  0  0  0  0  0
   -5.8747   27.1463    4.9057 C   0  0  0  0  0  0  0  0  0  0  0  0
   -5.7743   25.8022    5.1738 N   0  0  0  0  0  0  0  0  0  0  0  0
   -5.7302   25.1485    4.0170 N   0  0  0  0  0  0  0  0  0  0  0  0
   -5.7945   26.0698    3.0330 N   0  0  0  0  0  0  0  0  0  0  0  0
   -5.7606   25.6610    1.6565 C   0  0  0  0  0  0  0  0  0  0  0  0
   -5.5399   29.6010    7.7439 C   0  0  0  0  0  0  0  0  0  0  0  0
   -4.7782   29.3089    9.0421 C   0  0  0  0  0  0  0  0  0  0  0  0
   -2.3651   27.9762    7.7581 C   0  0  0  0  0  0  0  0  0  0  0  0
   -2.2692   29.3220    8.4319 C   0  0  0  0  0  0  0  0  0  0  0  0
   -1.0262   29.9870    8.5144 C   0  0  0  0  0  0  0  0  0  0  0  0
    0.5756   29.2424    7.8019 Br  0  0  0  0  0  0  0  0  0  0  0  0
   -0.9097   31.2326    9.1396 C   0  0  0  0  0  0  0  0  0  0  0  0
   -2.0263   31.8354    9.7051 C   0  0  0  0  0  0  0  0  0  0  0  0
   -3.2570   31.1885    9.6562 C   0  0  0  0  0  0  0  0  0  0  0  0
   -3.3956   29.9302    9.0379 C   0  0  0  0  0  0  0  0  0  0  0  0
 15 16  1  0  0  0
 16 17  2  0  0  0
 17 18  1  0  0  0
 17 19  1  0  0  0
 19 20  2  0  0  0
 20 21  1  0  0  0
 21 22  2  0  0  0
 22 14  1  0  0  0
 14 13  1  0  0  0
 13  1  1  0  0  0
  1  3  1  0  0  0
  3  4  1  0  0  0
  4  5  2  0  0  0
  5  6  1  0  0  0
  6  7  2  0  0  0
  7  8  1  0  0  0
  8  9  1  0  0  0
  9 10  2  0  0  0
 10 11  1  0  0  0
 11 12  1  0  0  0
 22 16  1  0  0  0
  8  3  2  0  0  0
 11  7  1  0  0  0
  1  2  1  0  0  0
M  END
> <minimizedAffinity>
-8.48614

$$$$
OCNT-2314223


 23 25  0  0  0  0  0  0  0  0999 V2000
   -6.8260   28.8740    7.1168 C   0  0  0  0  0  0  0  0  0  0  0  0
   -5.9374   28.1715    6.2210 N   0  0  0  0  0  0  0  0  0  0  0  0
   -6.4821   27.1774    5.4841 N   0  0  0  0  0  0  0  0  0  0  0  0
   -5.5421   26.8337    4.5940 C   0  0  0  0  0  0  0  0  0  0  0  0
   -4.3797   27.6215    4.7924 C   0  0  0  0  0  0  0  0  0  0  0  0
   -4.6330   28.4415    5.8743 C   0  0  0  0  0  0  0  0  0  0  0  0
   -5.7804   25.7838    3.5971 C   0  0  0  0  0  0  0  0  0  0  0  0
   -6.1915   24.5013    3.9698 C   0  0  0  0  0  0  0  0  0  0  0  0
   -6.3988   23.5546    2.9779 C   0  0  0  0  0  0  0  0  0  0  0  0
   -6.2277   23.7927    1.6618 N   0  0  0  0  0  0  0  0  0  0  0  0
   -5.8307   25.0359    1.3201 C   0  0  0  0  0  0  0  0  0  0  0  0
   -5.5979   26.0480    2.2357 C   0  0  0  0  0  0  0  0  0  0  0  0
   -3.7316   29.3465    6.4141 N   0  0  0  0  0  0  0  0  0  0  0  0
   -2.6881   29.0438    7.2710 C   0  0  0  0  0  0  0  0  0  0  0  0
   -2.3678   27.9269    7.6562 O   0  0  0  0  0  0  0  0  0  0  0  0
   -3.7228   30.2652    5.9847 H   0  0  0  0  0  0  0  0  0  0  0  0
   -1.9076   30.2897    7.6805 C   0  0  0  0  0  0  0  0  0  0  0  0
   -2.5815   31.5840    7.1786 C   0  0  0  0  0  0  0  0  0  0  0  0
   -2.8481   32.4286    8.4214 C   0  0  0  0  0  0  0  0  0  0  0  0
   -1.7957   31.9495    9.3926 C   0  0  0  0  0  0  0  0  0  0  0  0
   -0.5909   32.4705    9.0620 F   0  0  0  0  0  0  0  0  0  0  0  0
   -2.0682   32.3047   10.6581 F   0  0  0  0  0  0  0  0  0  0  0  0
   -1.7805   30.4522    9.2016 C   0  0  0  0  0  0  0  0  0  0  0  0
  1  2  1  0  0  0
  2  3  1  0  0  0
  3  4  2  0  0  0
  4  7  1  0  0  0
  7  8  2  0  0  0
  8  9  1  0  0  0
  9 10  2  0  0  0
 10 11  1  0  0  0
 11 12  2  0  0  0
  4  5  1  0  0  0
  5  6  2  0  0  0
  6 13  1  0  0  0
 13 14  1  0  0  0
 14 15  2  0  0  0
 14 17  1  0  0  0
 17 18  1  0  0  0
 18 19  1  0  0  0
 19 20  1  0  0  0
 20 21  1  0  0  0
 20 22  1  0  0  0
 20 23  1  0  0  0
  6  2  1  0  0  0
 23 17  1  0  0  0
 12  7  1  0  0  0
 13 16  1  0  0  0
M  END
> <minimizedAffinity>
-8.61731

$$$$
OCNT-2314226


 28 30  0  0  0  0  0  0  0  0999 V2000
   -3.1839   27.1274    6.1134 N   0  0  0  0  0  0  0  0  0  0  0  0
   -2.9605   26.4311    4.9476 C   0  0  0  0  0  0  0  0  0  0  0  0
   -1.9402   26.4550    4.2711 O   0  0  0  0  0  0  0  0  0  0  0  0
   -4.1394   27.1243    6.4490 H   0  0  0  0  0  0  0  0  0  0  0  0
   -2.1836   29.9620    8.3017 C   0  0  0  0  0  0  0  0  0  0  0  0
   -0.8124   29.7325    8.4572 C   0  0  0  0  0  0  0  0  0  0  0  0
   -0.1943   28.6444    7.8378 C   0  0  0  0  0  0  0  0  0  0  0  0
   -0.9232   27.7578    7.0441 C   0  0  0  0  0  0  0  0  0  0  0  0
   -0.1756   26.7437    6.5221 O   0  0  0  0  0  0  0  0  0  0  0  0
   -2.2957   27.9438    6.8590 C   0  0  0  0  0  0  0  0  0  0  0  0
   -2.9006   29.0479    7.4974 C   0  0  0  0  0  0  0  0  0  0  0  0
   -0.7175   26.2545    5.8684 H   0  0  0  0  0  0  0  0  0  0  0  0
   -3.1879   32.3245    8.0014 C   0  0  0  0  0  0  0  0  0  0  0  0
   -2.9080   31.1477    8.9637 C   0  0  0  0  0  0  0  0  0  0  0  0
   -4.2702   30.6791    9.5191 C   0  0  0  0  0  0  0  0  0  0  0  0
   -2.0495   31.7011   10.1219 C   0  0  0  0  0  0  0  0  0  0  0  0
   -4.1098   25.6124    4.4830 C   0  0  0  0  0  0  0  0  0  0  0  0
   -5.3110   25.6759    5.1936 C   0  0  0  0  0  0  0  0  0  0  0  0
   -6.3964   24.9013    4.7885 C   0  0  0  0  0  0  0  0  0  0  0  0
   -6.2891   24.0790    3.6650 C   0  0  0  0  0  0  0  0  0  0  0  0
   -5.1008   24.0339    2.9191 C   0  0  0  0  0  0  0  0  0  0  0  0
   -4.0061   24.8059    3.3401 C   0  0  0  0  0  0  0  0  0  0  0  0
   -5.0042   23.1508    1.6986 C   0  0  0  0  0  0  0  0  0  0  0  0
   -6.0906   23.4096    0.7738 N   0  0  0  0  0  0  0  0  0  0  0  0
   -7.0377   22.5332    0.3419 C   0  0  0  0  0  0  0  0  0  0  0  0
   -7.8483   23.1394   -0.4941 N   0  0  0  0  0  0  0  0  0  0  0  0
   -7.3323   24.4036   -0.5587 C   0  0  0  0  0  0  0  0  0  0  0  0
   -6.2477   24.6154    0.1922 N   0  0  0  0  0  0  0  0  0  0  0  0
 13 14  1  0  0  0
 14 15  1  0  0  0
 14 16  1  0  0  0
 14  5  1  0  0  0
  5  6  1  0  0  0
  6  7  2  0  0  0
  7  8  1  0  0  0
  8  9  1  0  0  0
  8 10  2  0  0  0
 10  1  1  0  0  0
  1  2  1  0  0  0
  2  3  2  0  0  0
  2 17  1  0  0  0
 17 18  1  0  0  0
 18 19  2  0  0  0
 19 20  1  0  0  0
 20 21  2  0  0  0
 21 23  1  0  0  0
 23 24  1  0  0  0
 24 25  1  0  0  0
 25 26  2  0  0  0
 26 27  1  0  0  0
 27 28  2  0  0  0
 21 22  1  0  0  0
 10 11  1  0  0  0
 11  5  2  0  0  0
 22 17  2  0  0  0
 28 24  1  0  0  0
  9 12  1  0  0  0
  1  4  1  0  0  0
M  END
> <minimizedAffinity>
-9.82286

$$$$
OCNT-2314233


 26 28  0  0  0  0  0  0  0  0999 V2000
   -2.5016   28.6207    6.8670 C   0  0  0  0  0  0  0  0  0  0  0  0
   -3.9929   28.2235    6.7173 C   0  0  0  0  0  0  0  0  0  0  0  0
   -4.2025   27.2464    5.6406 N   0  0  0  0  0  0  0  0  0  0  0  0
   -5.4896   27.0876    5.1406 C   0  0  0  0  0  0  0  0  0  0  0  0
   -6.4720   27.6589    5.6075 O   0  0  0  0  0  0  0  0  0  0  0  0
   -3.0708   26.3618    5.3449 C   0  0  0  0  0  0  0  0  0  0  0  0
   -2.1242   26.2087    6.5489 C   0  0  0  0  0  0  0  0  0  0  0  0
   -1.5972   27.4624    7.1020 N   0  0  0  0  0  0  0  0  0  0  0  0
   -0.6932   27.6884    6.6897 H   0  0  0  0  0  0  0  0  0  0  0  0
   -1.0699   30.2501    8.2075 C   0  0  0  0  0  0  0  0  0  0  0  0
   -0.9443   31.2504    9.1789 C   0  0  0  0  0  0  0  0  0  0  0  0
   -2.0659   31.7135    9.8701 C   0  0  0  0  0  0  0  0  0  0  0  0
   -3.3215   31.1839    9.5958 C   0  0  0  0  0  0  0  0  0  0  0  0
   -3.4568   30.1839    8.6346 C   0  0  0  0  0  0  0  0  0  0  0  0
   -2.3367   29.6907    7.9383 C   0  0  0  0  0  0  0  0  0  0  0  0
    1.0889   29.2319    8.1892 C   0  0  0  0  0  0  0  0  0  0  0  0
   -0.0250   29.7502    7.4729 O   0  0  0  0  0  0  0  0  0  0  0  0
   -5.7018   26.1869    3.9846 C   0  0  0  0  0  0  0  0  0  0  0  0
   -6.1180   24.8745    4.2219 C   0  0  0  0  0  0  0  0  0  0  0  0
   -6.3448   24.0127    3.1472 C   0  0  0  0  0  0  0  0  0  0  0  0
   -6.1759   24.4619    1.8293 C   0  0  0  0  0  0  0  0  0  0  0  0
   -5.7770   25.7873    1.6015 C   0  0  0  0  0  0  0  0  0  0  0  0
   -5.5497   26.6515    2.6747 C   0  0  0  0  0  0  0  0  0  0  0  0
   -6.4075   23.5259    0.6709 C   0  0  0  0  0  0  0  0  0  0  0  0
   -7.0772   24.2218   -0.5022 C   0  0  0  0  0  0  0  0  0  0  0  0
   -8.4250   24.1941   -0.3161 F   0  0  0  0  0  0  0  0  0  0  0  0
 16 17  1  0  0  0
 17 10  1  0  0  0
 10 11  2  0  0  0
 11 12  1  0  0  0
 12 13  2  0  0  0
 13 14  1  0  0  0
 14 15  2  0  0  0
 15  1  1  0  0  0
  1  2  1  0  0  0
  2  3  1  0  0  0
  3  4  1  0  0  0
  4  5  2  0  0  0
  4 18  1  0  0  0
 18 19  1  0  0  0
 19 20  2  0  0  0
 20 21  1  0  0  0
 21 24  1  0  0  0
 24 25  1  0  0  0
 25 26  1  0  0  0
 21 22  2  0  0  0
 22 23  1  0  0  0
  3  6  1  0  0  0
  6  7  1  0  0  0
  7  8  1  0  0  0
 15 10  1  0  0  0
  8  1  1  0  0  0
 23 18  2  0  0  0
  8  9  1  0  0  0
M  END
> <minimizedAffinity>
-9.78174

$$$$
OCNT-2314235


 28 31  0  0  0  0  0  0  0  0999 V2000
   -5.2422   25.5224    2.8136 N   0  0  0  0  0  0  0  0  0  0  0  0
   -5.7663   26.8891    2.9277 C   0  0  0  0  0  0  0  0  0  0  0  0
   -5.4596   27.4261    4.3298 C   0  0  0  0  0  0  0  0  0  0  0  0
   -4.0335   27.1756    4.7814 C   0  0  0  0  0  0  0  0  0  0  0  0
   -3.5042   27.8124    5.9286 C   0  0  0  0  0  0  0  0  0  0  0  0
   -2.1855   27.5236    6.3275 C   0  0  0  0  0  0  0  0  0  0  0  0
   -1.4043   26.6169    5.6159 C   0  0  0  0  0  0  0  0  0  0  0  0
   -1.9326   25.9726    4.5010 C   0  0  0  0  0  0  0  0  0  0  0  0
   -3.2500   26.2265    4.0845 C   0  0  0  0  0  0  0  0  0  0  0  0
   -3.7745   25.5047    2.8513 C   0  0  0  0  0  0  0  0  0  0  0  0
   -5.5508   22.3485    2.3202 C   0  0  0  0  0  0  0  0  0  0  0  0
   -5.9685   21.2407    1.6000 C   0  0  0  0  0  0  0  0  0  0  0  0
   -6.5112   21.6750    0.4198 N   0  0  0  0  0  0  0  0  0  0  0  0
   -6.4481   23.0379    0.3543 C   0  0  0  0  0  0  0  0  0  0  0  0
   -6.8761   23.7602   -0.6904 N   0  0  0  0  0  0  0  0  0  0  0  0
   -6.6732   25.0699   -0.4879 C   0  0  0  0  0  0  0  0  0  0  0  0
   -6.1457   25.6731    0.5950 N   0  0  0  0  0  0  0  0  0  0  0  0
   -5.7503   24.9109    1.6508 C   0  0  0  0  0  0  0  0  0  0  0  0
   -5.8793   23.5077    1.5302 C   0  0  0  0  0  0  0  0  0  0  0  0
   -6.8917   21.0958   -0.3140 H   0  0  0  0  0  0  0  0  0  0  0  0
   -5.8275   22.5835    4.8031 C   0  0  0  0  0  0  0  0  0  0  0  0
   -4.8706   22.3134    3.6525 C   0  0  0  0  0  0  0  0  0  0  0  0
   -4.3095   28.7960    6.7525 C   0  0  0  0  0  0  0  0  0  0  0  0
   -3.8650   30.2363    6.5911 C   0  0  0  0  0  0  0  0  0  0  0  0
   -4.2868   30.8730    5.4572 N   0  0  0  0  0  0  0  0  0  0  0  0
   -3.1324   30.8097    7.3918 O   0  0  0  0  0  0  0  0  0  0  0  0
   -4.0714   31.8622    5.4201 H   0  0  0  0  0  0  0  0  0  0  0  0
   -5.1518   30.5841    5.0179 H   0  0  0  0  0  0  0  0  0  0  0  0
 21 22  1  0  0  0
 22 11  1  0  0  0
 11 12  2  0  0  0
 12 13  1  0  0  0
 13 14  1  0  0  0
 14 15  2  0  0  0
 15 16  1  0  0  0
 16 17  2  0  0  0
 17 18  1  0  0  0
 18  1  1  0  0  0
  1  2  1  0  0  0
  2  3  1  0  0  0
  3  4  1  0  0  0
  4  5  2  0  0  0
  5 23  1  0  0  0
 23 24  1  0  0  0
 24 25  1  0  0  0
 24 26  2  0  0  0
  5  6  1  0  0  0
  6  7  2  0  0  0
  7  8  1  0  0  0
  8  9  2  0  0  0
  9 10  1  0  0  0
 18 19  2  0  0  0
 19 11  1  0  0  0
 19 14  1  0  0  0
 10  1  1  0  0  0
  9  4  1  0  0  0
 13 20  1  0  0  0
 25 27  1  0  0  0
 25 28  1  0  0  0
M  END
> <minimizedAffinity>
-9.15270

$$$$
OCNT-2314237


 23 26  0  0  0  0  0  0  0  0999 V2000
   -4.8934   26.8342    4.5524 N   0  0  0  0  0  0  0  0  0  0  0  0
   -5.2528   25.4763    4.9364 C   0  0  0  0  0  0  0  0  0  0  0  0
   -4.6581   24.4653    3.9461 C   0  0  0  0  0  0  0  0  0  0  0  0
   -4.6265   24.9743    2.4890 C   0  0  0  0  0  0  0  0  0  0  0  0
   -5.6875   26.0628    2.2971 C   0  0  0  0  0  0  0  0  0  0  0  0
   -5.4713   27.2364    3.2649 C   0  0  0  0  0  0  0  0  0  0  0  0
   -5.0872   27.8391    5.6129 C   0  0  0  0  0  0  0  0  0  0  0  0
    0.4899   28.9712    7.8274 C   0  0  0  0  0  0  0  0  0  0  0  0
   -0.0715   29.8841    8.7144 C   0  0  0  0  0  0  0  0  0  0  0  0
   -1.4504   30.1176    8.7259 C   0  0  0  0  0  0  0  0  0  0  0  0
   -2.2530   29.4067    7.8179 C   0  0  0  0  0  0  0  0  0  0  0  0
   -3.9576   29.4712    7.5941 S   0  0  0  0  0  0  0  0  0  0  0  0
   -3.8411   28.3067    6.3316 C   0  0  0  0  0  0  0  0  0  0  0  0
   -2.6250   27.8619    6.0872 N   0  0  0  0  0  0  0  0  0  0  0  0
   -1.7119   28.4865    6.9191 C   0  0  0  0  0  0  0  0  0  0  0  0
   -0.3192   28.2686    6.9283 C   0  0  0  0  0  0  0  0  0  0  0  0
   -4.8155   23.8390    1.4695 C   0  0  0  0  0  0  0  0  0  0  0  0
   -5.7100   22.7521    1.9591 C   0  0  0  0  0  0  0  0  0  0  0  0
   -5.3799   21.5024    2.4395 C   0  0  0  0  0  0  0  0  0  0  0  0
   -6.5723   20.9100    2.7496 N   0  0  0  0  0  0  0  0  0  0  0  0
   -7.5631   21.8024    2.4588 C   0  0  0  0  0  0  0  0  0  0  0  0
   -7.0748   22.9240    1.9834 N   0  0  0  0  0  0  0  0  0  0  0  0
   -6.7038   19.9819    3.1266 H   0  0  0  0  0  0  0  0  0  0  0  0
  8  9  2  0  0  0
  9 10  1  0  0  0
 10 11  2  0  0  0
 11 12  1  0  0  0
 12 13  1  0  0  0
 13  7  1  0  0  0
  7  1  1  0  0  0
  1  2  1  0  0  0
  2  3  1  0  0  0
  3  4  1  0  0  0
  4 17  1  0  0  0
 17 18  1  0  0  0
 18 19  2  0  0  0
 19 20  1  0  0  0
 20 21  1  0  0  0
 21 22  2  0  0  0
  4  5  1  0  0  0
  5  6  1  0  0  0
 13 14  2  0  0  0
 14 15  1  0  0  0
 15 16  2  0  0  0
 16  8  1  0  0  0
 15 11  1  0  0  0
  6  1  1  0  0  0
 22 18  1  0  0  0
 20 23  1  0  0  0
M  END
> <minimizedAffinity>
-8.37690

$$$$
OCNT-2314242


 25 28  0  0  0  0  0  0  0  0999 V2000
   -3.8657   25.6773    3.8257 C   0  0  0  0  0  0  0  0  0  0  0  0
   -4.3807   26.4607    4.8659 C   0  0  0  0  0  0  0  0  0  0  0  0
   -3.5248   27.0228    5.8161 C   0  0  0  0  0  0  0  0  0  0  0  0
   -2.1463   26.8314    5.7047 C   0  0  0  0  0  0  0  0  0  0  0  0
   -1.6213   26.0602    4.6686 C   0  0  0  0  0  0  0  0  0  0  0  0
   -2.4794   25.4983    3.7208 C   0  0  0  0  0  0  0  0  0  0  0  0
   -5.4034   23.8736    2.9100 N   0  0  0  0  0  0  0  0  0  0  0  0
   -6.1690   23.7256    1.7638 C   0  0  0  0  0  0  0  0  0  0  0  0
   -7.0524   22.7333    1.3126 C   0  0  0  0  0  0  0  0  0  0  0  0
   -7.6539   22.9254    0.0627 C   0  0  0  0  0  0  0  0  0  0  0  0
   -7.3850   24.0596   -0.7027 C   0  0  0  0  0  0  0  0  0  0  0  0
   -6.5043   25.0407   -0.2354 C   0  0  0  0  0  0  0  0  0  0  0  0
   -5.8952   24.8647    1.0161 C   0  0  0  0  0  0  0  0  0  0  0  0
   -5.0194   25.6819    1.6722 N   0  0  0  0  0  0  0  0  0  0  0  0
   -4.7512   25.0934    2.8229 C   0  0  0  0  0  0  0  0  0  0  0  0
   -4.9452   21.4949    3.4499 C   0  0  0  0  0  0  0  0  0  0  0  0
   -5.3389   22.8746    3.9752 C   0  0  0  0  0  0  0  0  0  0  0  0
   -6.5756   22.8103    4.8733 C   0  0  0  0  0  0  0  0  0  0  0  0
   -1.2772   27.3158    6.6511 O   0  0  0  0  0  0  0  0  0  0  0  0
   -1.5628   28.5636    7.1904 C   0  0  0  0  0  0  0  0  0  0  0  0
   -1.1204   29.6718    6.4800 C   0  0  0  0  0  0  0  0  0  0  0  0
   -1.3526   30.9450    6.8869 N   0  0  0  0  0  0  0  0  0  0  0  0
   -2.0586   31.0569    8.0353 C   0  0  0  0  0  0  0  0  0  0  0  0
   -2.5081   29.9525    8.7420 C   0  0  0  0  0  0  0  0  0  0  0  0
   -2.2727   28.6839    8.3372 N   0  0  0  0  0  0  0  0  0  0  0  0
 16 17  1  0  0  0
 17 18  1  0  0  0
 17  7  1  0  0  0
  7  8  1  0  0  0
  8  9  2  0  0  0
  9 10  1  0  0  0
 10 11  2  0  0  0
 11 12  1  0  0  0
 12 13  2  0  0  0
 13 14  1  0  0  0
 14 15  2  0  0  0
 15  1  1  0  0  0
  1  2  1  0  0  0
  2  3  2  0  0  0
  3  4  1  0  0  0
  4 19  1  0  0  0
 19 20  1  0  0  0
 20 21  2  0  0  0
 21 22  1  0  0  0
 22 23  2  0  0  0
 23 24  1  0  0  0
 24 25  2  0  0  0
  4  5  2  0  0  0
  5  6  1  0  0  0
 15  7  1  0  0  0
  6  1  2  0  0  0
 13  8  1  0  0  0
 25 20  1  0  0  0
M  END
> <minimizedAffinity>
-9.11809

$$$$
OCNT-2314243


 26 29  0  0  0  0  0  0  0  0999 V2000
   -3.8219   28.5530    6.8650 N   0  0  0  0  0  0  0  0  0  0  0  0
   -2.7287   27.7272    6.2971 C   0  0  0  0  0  0  0  0  0  0  0  0
   -3.1733   26.7832    5.2239 C   0  0  0  0  0  0  0  0  0  0  0  0
   -4.4409   26.5254    4.7123 C   0  0  0  0  0  0  0  0  0  0  0  0
   -5.7249   27.0458    5.2742 C   0  0  0  0  0  0  0  0  0  0  0  0
   -5.8249   28.5956    5.3172 C   0  0  0  0  0  0  0  0  0  0  0  0
   -6.1908   29.1595    3.9306 C   0  0  0  0  0  0  0  0  0  0  0  0
   -6.9769   28.9515    6.2846 C   0  0  0  0  0  0  0  0  0  0  0  0
   -4.5136   29.2971    5.7878 C   0  0  0  0  0  0  0  0  0  0  0  0
   -4.2800   25.5803    3.6976 N   0  0  0  0  0  0  0  0  0  0  0  0
   -2.9901   25.1399    3.6594 N   0  0  0  0  0  0  0  0  0  0  0  0
   -2.3337   25.8998    4.5259 C   0  0  0  0  0  0  0  0  0  0  0  0
   -5.2013   25.0371    2.7498 C   0  0  0  0  0  0  0  0  0  0  0  0
   -5.9952   23.9399    3.1312 C   0  0  0  0  0  0  0  0  0  0  0  0
   -6.9069   23.3715    2.2381 C   0  0  0  0  0  0  0  0  0  0  0  0
   -7.0252   23.8793    0.9482 C   0  0  0  0  0  0  0  0  0  0  0  0
   -6.2231   24.9455    0.5488 C   0  0  0  0  0  0  0  0  0  0  0  0
   -5.3100   25.5176    1.4422 C   0  0  0  0  0  0  0  0  0  0  0  0
   -3.2180   29.4877    7.8418 C   0  0  0  0  0  0  0  0  0  0  0  0
   -5.1756   34.0365    7.9593 C   0  0  0  0  0  0  0  0  0  0  0  0
   -4.9565   32.5955    8.1904 C   0  0  0  0  0  0  0  0  0  0  0  0
   -5.7839   31.8460    8.9284 N   0  0  0  0  0  0  0  0  0  0  0  0
   -5.1994   30.6403    8.8432 N   0  0  0  0  0  0  0  0  0  0  0  0
   -4.0668   30.6875    8.0833 C   0  0  0  0  0  0  0  0  0  0  0  0
   -3.8904   31.9198    7.6540 N   0  0  0  0  0  0  0  0  0  0  0  0
   -5.6234   29.8351    9.2896 H   0  0  0  0  0  0  0  0  0  0  0  0
 20 21  1  0  0  0
 21 22  2  0  0  0
 22 23  1  0  0  0
 23 24  1  0  0  0
 24 19  1  0  0  0
 19  1  1  0  0  0
  1  2  1  0  0  0
  2  3  1  0  0  0
  3  4  2  0  0  0
  4  5  1  0  0  0
  5  6  1  0  0  0
  6  7  1  0  0  0
  6  8  1  0  0  0
  6  9  1  0  0  0
  4 10  1  0  0  0
 10 13  1  0  0  0
 13 14  2  0  0  0
 14 15  1  0  0  0
 15 16  2  0  0  0
 16 17  1  0  0  0
 17 18  2  0  0  0
 10 11  1  0  0  0
 11 12  2  0  0  0
 24 25  2  0  0  0
 25 21  1  0  0  0
  9  1  1  0  0  0
 18 13  1  0  0  0
 12  3  1  0  0  0
 23 26  1  0  0  0
M  END
> <minimizedAffinity>
-9.32453

$$$$
OCNT-2314254


 25 28  0  0  0  0  0  0  0  0999 V2000
   -6.8980   29.6276    5.8109 O   0  0  0  0  0  0  0  0  0  0  0  0
   -6.1204   28.6878    5.9505 C   0  0  0  0  0  0  0  0  0  0  0  0
   -5.2778   28.5816    7.0273 N   0  0  0  0  0  0  0  0  0  0  0  0
   -4.8096   27.7028    7.2066 H   0  0  0  0  0  0  0  0  0  0  0  0
   -6.0435   27.6043    4.9970 C   0  0  0  0  0  0  0  0  0  0  0  0
   -5.8381   27.5747    3.6275 C   0  0  0  0  0  0  0  0  0  0  0  0
   -5.8557   26.2175    3.1987 C   0  0  0  0  0  0  0  0  0  0  0  0
   -5.7034   25.5819    1.9516 C   0  0  0  0  0  0  0  0  0  0  0  0
   -5.7792   24.1858    1.8815 C   0  0  0  0  0  0  0  0  0  0  0  0
   -6.0036   23.4277    3.0290 C   0  0  0  0  0  0  0  0  0  0  0  0
   -6.1590   24.0379    4.2774 C   0  0  0  0  0  0  0  0  0  0  0  0
   -6.0796   25.4342    4.3281 C   0  0  0  0  0  0  0  0  0  0  0  0
   -6.1941   26.2927    5.3941 N   0  0  0  0  0  0  0  0  0  0  0  0
   -6.3653   26.0176    6.3525 H   0  0  0  0  0  0  0  0  0  0  0  0
   -5.3585   29.4929    8.1509 C   0  0  0  0  0  0  0  0  0  0  0  0
   -4.0204   29.5659    8.9064 C   0  0  0  0  0  0  0  0  0  0  0  0
   -3.3742   30.8979    8.8338 N   0  0  0  0  0  0  0  0  0  0  0  0
   -3.2564   31.4242    7.4501 C   0  0  0  0  0  0  0  0  0  0  0  0
   -2.3492   30.6060    6.5028 C   0  0  0  0  0  0  0  0  0  0  0  0
   -1.1330   30.1573    7.2465 C   0  0  0  0  0  0  0  0  0  0  0  0
   -0.9949   30.2513    8.6181 C   0  0  0  0  0  0  0  0  0  0  0  0
    0.2569   29.7082    9.0422 C   0  0  0  0  0  0  0  0  0  0  0  0
    1.0014   29.2284    7.9852 C   0  0  0  0  0  0  0  0  0  0  0  0
    0.1986   29.4306    6.4861 S   0  0  0  0  0  0  0  0  0  0  0  0
   -2.0441   30.8795    9.4929 C   0  0  0  0  0  0  0  0  0  0  0  0
  1  2  2  0  0  0
  2  3  1  0  0  0
  3 15  1  0  0  0
 15 16  1  0  0  0
 16 17  1  0  0  0
 17 18  1  0  0  0
 18 19  1  0  0  0
 19 20  1  0  0  0
 20 21  2  0  0  0
 21 22  1  0  0  0
 22 23  2  0  0  0
 23 24  1  0  0  0
 21 25  1  0  0  0
  2  5  1  0  0  0
  5  6  2  0  0  0
  6  7  1  0  0  0
  7  8  2  0  0  0
  8  9  1  0  0  0
  9 10  2  0  0  0
 10 11  1  0  0  0
 11 12  2  0  0  0
 12 13  1  0  0  0
 25 17  1  0  0  0
 13  5  1  0  0  0
 24 20  1  0  0  0
 12  7  1  0  0  0
  3  4  1  0  0  0
 13 14  1  0  0  0
M  END
> <minimizedAffinity>
-9.16252

$$$$
OCNT-2314255


 27 30  0  0  0  0  0  0  0  0999 V2000
   -1.4481   27.3216    5.2131 O   0  0  0  0  0  0  0  0  0  0  0  0
   -2.4496   26.8214    5.7074 C   0  0  0  0  0  0  0  0  0  0  0  0
   -2.7594   26.8771    7.0362 N   0  0  0  0  0  0  0  0  0  0  0  0
   -3.3908   26.1186    4.9988 N   0  0  0  0  0  0  0  0  0  0  0  0
   -3.7417   26.8808    7.2803 H   0  0  0  0  0  0  0  0  0  0  0  0
   -3.9964   25.5399    5.5637 H   0  0  0  0  0  0  0  0  0  0  0  0
   -3.2502   25.8732    3.5573 C   0  0  0  0  0  0  0  0  0  0  0  0
   -3.6167   24.4405    3.1033 C   0  0  0  0  0  0  0  0  0  0  0  0
   -4.2687   25.0810    1.8456 C   0  0  0  0  0  0  0  0  0  0  0  0
   -4.4444   26.3644    2.7062 C   0  0  0  0  0  0  0  0  0  0  0  0
   -5.5567   24.4055    1.2092 C   0  0  0  0  0  0  0  0  0  0  0  0
   -6.1517   24.8683    0.0170 C   0  0  0  0  0  0  0  0  0  0  0  0
   -7.2858   24.2640   -0.5360 C   0  0  0  0  0  0  0  0  0  0  0  0
   -7.8648   23.1669    0.0927 C   0  0  0  0  0  0  0  0  0  0  0  0
   -7.3050   22.6836    1.2690 C   0  0  0  0  0  0  0  0  0  0  0  0
   -8.0111   21.3259    2.0566 Cl  0  0  0  0  0  0  0  0  0  0  0  0
   -6.1724   23.2915    1.8169 C   0  0  0  0  0  0  0  0  0  0  0  0
   -1.9501   27.6769    7.9258 C   0  0  0  0  0  0  0  0  0  0  0  0
   -2.6332   28.9874    8.1244 C   0  0  0  0  0  0  0  0  0  0  0  0
   -3.9136   29.3627    7.7722 C   0  0  0  0  0  0  0  0  0  0  0  0
   -4.0294   30.6562    8.1851 N   0  0  0  0  0  0  0  0  0  0  0  0
   -5.2070   31.4949    8.0941 C   0  0  0  0  0  0  0  0  0  0  0  0
   -4.8884   32.9724    8.3251 C   0  0  0  0  0  0  0  0  0  0  0  0
   -3.9546   33.1455    9.5250 C   0  0  0  0  0  0  0  0  0  0  0  0
   -2.6317   32.4093    9.2991 C   0  0  0  0  0  0  0  0  0  0  0  0
   -2.8471   31.0327    8.7696 C   0  0  0  0  0  0  0  0  0  0  0  0
   -1.9805   30.0422    8.7450 N   0  0  0  0  0  0  0  0  0  0  0  0
  1  2  2  0  0  0
  2  3  1  0  0  0
  3 18  1  0  0  0
 18 19  1  0  0  0
 19 20  2  0  0  0
 20 21  1  0  0  0
 21 22  1  0  0  0
 22 23  1  0  0  0
 23 24  1  0  0  0
 24 25  1  0  0  0
 25 26  1  0  0  0
 26 27  2  0  0  0
  2  4  1  0  0  0
  4  7  1  0  0  0
  7  8  1  0  0  0
  8  9  1  0  0  0
  9 11  1  0  0  0
 11 12  2  0  0  0
 12 13  1  0  0  0
 13 14  2  0  0  0
 14 15  1  0  0  0
 15 16  1  0  0  0
 15 17  2  0  0  0
  9 10  1  0  0  0
 27 19  1  0  0  0
 10  7  1  0  0  0
 26 21  1  0  0  0
 17 11  1  0  0  0
  3  5  1  0  0  0
  4  6  1  0  0  0
M  END
> <minimizedAffinity>
-9.79352

$$$$
OCNT-2314261


 23 25  0  0  0  0  0  0  0  0999 V2000
   -3.1247   27.2703    6.0991 C   0  0  0  0  0  0  0  0  0  0  0  0
   -1.9990   26.2437    6.3365 C   0  0  0  0  0  0  0  0  0  0  0  0
   -0.8925   26.1619    5.2903 C   0  0  0  0  0  0  0  0  0  0  0  0
   -1.4110   26.1663    3.8626 C   0  0  0  0  0  0  0  0  0  0  0  0
   -2.6120   25.4023    3.7814 O   0  0  0  0  0  0  0  0  0  0  0  0
   -3.7338   26.1927    3.8143 C   0  0  0  0  0  0  0  0  0  0  0  0
   -4.6561   26.0361    2.7646 C   0  0  0  0  0  0  0  0  0  0  0  0
   -4.3422   24.8158    1.3413 Br  0  0  0  0  0  0  0  0  0  0  0  0
   -5.8289   26.7906    2.7274 C   0  0  0  0  0  0  0  0  0  0  0  0
   -6.0975   27.6969    3.7466 C   0  0  0  0  0  0  0  0  0  0  0  0
   -5.1983   27.8381    4.8039 C   0  0  0  0  0  0  0  0  0  0  0  0
   -4.0012   27.0896    4.8660 C   0  0  0  0  0  0  0  0  0  0  0  0
   -2.7276   28.6695    6.3552 N   0  0  0  0  0  0  0  0  0  0  0  0
   -3.1105   29.2619    5.6164 H   0  0  0  0  0  0  0  0  0  0  0  0
   -3.1423   29.2315    7.6553 C   0  0  0  0  0  0  0  0  0  0  0  0
   -3.0951   31.3730    6.5168 O   0  0  0  0  0  0  0  0  0  0  0  0
   -3.1501   30.7653    7.5813 C   0  0  0  0  0  0  0  0  0  0  0  0
   -3.2632   31.3719    8.8121 N   0  0  0  0  0  0  0  0  0  0  0  0
   -3.1329   30.7548    9.6082 H   0  0  0  0  0  0  0  0  0  0  0  0
   -3.1653   32.7964    8.9935 C   0  0  0  0  0  0  0  0  0  0  0  0
   -4.5401   33.3756    9.0953 C   0  0  0  0  0  0  0  0  0  0  0  0
   -5.1400   34.1497    7.9480 C   0  0  0  0  0  0  0  0  0  0  0  0
   -4.7359   34.8659    9.2074 C   0  0  0  0  0  0  0  0  0  0  0  0
 16 17  2  0  0  0
 17 15  1  0  0  0
 15 13  1  0  0  0
 13  1  1  0  0  0
  1  2  1  0  0  0
  2  3  1  0  0  0
  3  4  1  0  0  0
  4  5  1  0  0  0
  5  6  1  0  0  0
  6  7  2  0  0  0
  7  8  1  0  0  0
  7  9  1  0  0  0
  9 10  2  0  0  0
 10 11  1  0  0  0
 11 12  2  0  0  0
 17 18  1  0  0  0
 18 20  1  0  0  0
 20 21  1  0  0  0
 21 22  1  0  0  0
 22 23  1  0  0  0
 12  1  1  0  0  0
 23 21  1  0  0  0
 12  6  1  0  0  0
 13 14  1  0  0  0
 18 19  1  0  0  0
M  END
> <minimizedAffinity>
-8.23493

$$$$
OCNT-2314262


 25 28  0  0  0  0  0  0  0  0999 V2000
   -5.7333   24.4508    4.2489 N   0  0  0  0  0  0  0  0  0  0  0  0
   -4.8863   23.9879    3.2357 C   0  0  0  0  0  0  0  0  0  0  0  0
   -3.7277   24.3811    3.1171 O   0  0  0  0  0  0  0  0  0  0  0  0
   -5.4104   22.9928    2.3041 C   0  0  0  0  0  0  0  0  0  0  0  0
   -5.9904   23.2355    1.0631 C   0  0  0  0  0  0  0  0  0  0  0  0
   -6.2443   24.5024    0.3284 C   0  0  0  0  0  0  0  0  0  0  0  0
   -6.3188   22.0198    0.5103 N   0  0  0  0  0  0  0  0  0  0  0  0
   -5.9281   21.0088    1.3462 C   0  0  0  0  0  0  0  0  0  0  0  0
   -5.3400   21.5780    2.4516 C   0  0  0  0  0  0  0  0  0  0  0  0
   -6.7519   21.8887   -0.3950 H   0  0  0  0  0  0  0  0  0  0  0  0
   -7.0797   23.9345    4.4906 C   0  0  0  0  0  0  0  0  0  0  0  0
   -8.8563   21.8095    8.6909 C   0  0  0  0  0  0  0  0  0  0  0  0
   -7.9192   22.1995    7.6073 C   0  0  0  0  0  0  0  0  0  0  0  0
   -6.6734   21.7852    7.4954 N   0  0  0  0  0  0  0  0  0  0  0  0
   -6.1908   22.3533    6.3507 C   0  0  0  0  0  0  0  0  0  0  0  0
   -7.1507   23.1292    5.7373 C   0  0  0  0  0  0  0  0  0  0  0  0
   -8.2447   23.0464    6.5708 N   0  0  0  0  0  0  0  0  0  0  0  0
   -9.5089   23.7185    6.3787 C   0  0  0  0  0  0  0  0  0  0  0  0
   -5.3140   25.6587    4.9582 C   0  0  0  0  0  0  0  0  0  0  0  0
   -6.2516   26.8067    4.7206 C   0  0  0  0  0  0  0  0  0  0  0  0
   -5.8977   27.9382    3.7785 C   0  0  0  0  0  0  0  0  0  0  0  0
   -5.9125   28.1655    5.2554 C   0  0  0  0  0  0  0  0  0  0  0  0
   -6.8236   29.0784    5.9880 C   0  0  0  0  0  0  0  0  0  0  0  0
   -5.5429   29.8459    6.3596 C   0  0  0  0  0  0  0  0  0  0  0  0
   -4.7492   28.5562    6.0883 C   0  0  0  0  0  0  0  0  0  0  0  0
 12 13  1  0  0  0
 13 14  2  0  0  0
 14 15  1  0  0  0
 15 16  2  0  0  0
 16 11  1  0  0  0
 11  1  1  0  0  0
  1 19  1  0  0  0
 19 20  1  0  0  0
 20 21  1  0  0  0
 21 22  1  0  0  0
 22 23  1  0  0  0
 23 24  1  0  0  0
 24 25  1  0  0  0
  1  2  1  0  0  0
  2  3  2  0  0  0
  2  4  1  0  0  0
  4  5  2  0  0  0
  5  6  1  0  0  0
  5  7  1  0  0  0
  7  8  1  0  0  0
  8  9  2  0  0  0
 16 17  1  0  0  0
 17 18  1  0  0  0
 17 13  1  0  0  0
 22 20  1  0  0  0
  9  4  1  0  0  0
 25 22  1  0  0  0
  7 10  1  0  0  0
M  END
> <minimizedAffinity>
-8.07712

$$$$
OCNT-2314263


 23 25  0  0  0  0  0  0  0  0999 V2000
   -5.8699   28.3888    5.8272 C   0  0  0  0  0  0  0  0  0  0  0  0
   -6.1946   29.5751    5.1644 C   0  0  0  0  0  0  0  0  0  0  0  0
   -6.2423   29.6306    3.7690 C   0  0  0  0  0  0  0  0  0  0  0  0
   -5.9339   28.5031    3.0074 C   0  0  0  0  0  0  0  0  0  0  0  0
   -5.5587   27.3101    3.6346 C   0  0  0  0  0  0  0  0  0  0  0  0
   -5.5231   27.2783    5.0402 C   0  0  0  0  0  0  0  0  0  0  0  0
   -5.2042   26.1036    2.8850 C   0  0  0  0  0  0  0  0  0  0  0  0
   -4.3186   25.1856    3.2324 N   0  0  0  0  0  0  0  0  0  0  0  0
   -4.2770   24.2177    2.2559 N   0  0  0  0  0  0  0  0  0  0  0  0
   -5.1314   24.5626    1.3253 C   0  0  0  0  0  0  0  0  0  0  0  0
   -5.7329   25.7316    1.6733 N   0  0  0  0  0  0  0  0  0  0  0  0
   -6.4209   26.2348    1.1367 H   0  0  0  0  0  0  0  0  0  0  0  0
   -5.7372   28.2855    7.2168 N   0  0  0  0  0  0  0  0  0  0  0  0
   -6.6119   27.9872    7.6459 H   0  0  0  0  0  0  0  0  0  0  0  0
   -5.0980   29.3624    7.9616 C   0  0  0  0  0  0  0  0  0  0  0  0
    0.7863   29.4114    6.5964 Cl  0  0  0  0  0  0  0  0  0  0  0  0
   -0.8911   29.4141    6.9785 C   0  0  0  0  0  0  0  0  0  0  0  0
   -1.4670   28.2921    7.5657 C   0  0  0  0  0  0  0  0  0  0  0  0
   -2.8284   28.2963    7.8740 C   0  0  0  0  0  0  0  0  0  0  0  0
   -3.6319   29.4188    7.5929 C   0  0  0  0  0  0  0  0  0  0  0  0
   -3.0253   30.5447    7.0129 C   0  0  0  0  0  0  0  0  0  0  0  0
   -3.9102   31.9865    6.6627 Cl  0  0  0  0  0  0  0  0  0  0  0  0
   -1.6614   30.5404    6.7030 C   0  0  0  0  0  0  0  0  0  0  0  0
 16 17  1  0  0  0
 17 18  1  0  0  0
 18 19  2  0  0  0
 19 20  1  0  0  0
 20 15  1  0  0  0
 15 13  1  0  0  0
 13  1  1  0  0  0
  1  2  2  0  0  0
  2  3  1  0  0  0
  3  4  2  0  0  0
  4  5  1  0  0  0
  5  7  1  0  0  0
  7  8  2  0  0  0
  8  9  1  0  0  0
  9 10  2  0  0  0
 10 11  1  0  0  0
  5  6  2  0  0  0
 20 21  2  0  0  0
 21 22  1  0  0  0
 21 23  1  0  0  0
 23 17  2  0  0  0
  6  1  1  0  0  0
 11  7  1  0  0  0
 13 14  1  0  0  0
 11 12  1  0  0  0
M  END
> <minimizedAffinity>
-8.48415

$$$$
OCNT-2314266


 25 28  0  0  0  0  0  0  0  0999 V2000
   -4.7712   25.2924    4.5095 C   0  0  0  0  0  0  0  0  0  0  0  0
   -5.9504   25.3144    4.8457 O   0  0  0  0  0  0  0  0  0  0  0  0
   -4.2273   24.4586    3.5373 N   0  0  0  0  0  0  0  0  0  0  0  0
   -3.2726   24.6599    3.2879 H   0  0  0  0  0  0  0  0  0  0  0  0
   -4.8744   23.4455    2.7841 C   0  0  0  0  0  0  0  0  0  0  0  0
   -4.8787   22.1063    3.1939 C   0  0  0  0  0  0  0  0  0  0  0  0
   -5.5442   21.1253    2.4569 C   0  0  0  0  0  0  0  0  0  0  0  0
   -6.2255   21.4664    1.2969 C   0  0  0  0  0  0  0  0  0  0  0  0
   -6.2405   22.7946    0.8584 C   0  0  0  0  0  0  0  0  0  0  0  0
   -5.5382   23.7928    1.5786 C   0  0  0  0  0  0  0  0  0  0  0  0
   -5.5719   25.2226    1.0696 C   0  0  0  0  0  0  0  0  0  0  0  0
   -5.9589   25.3734   -0.3385 N   0  0  0  0  0  0  0  0  0  0  0  0
   -7.1985   24.6337   -0.5862 C   0  0  0  0  0  0  0  0  0  0  0  0
   -6.9769   23.1301   -0.4173 C   0  0  0  0  0  0  0  0  0  0  0  0
   -5.2192   24.9702   -0.9147 H   0  0  0  0  0  0  0  0  0  0  0  0
   -4.1155   30.0769    6.8538 C   0  0  0  0  0  0  0  0  0  0  0  0
   -2.8828   29.2386    6.7114 C   0  0  0  0  0  0  0  0  0  0  0  0
   -1.6683   29.6373    7.1413 C   0  0  0  0  0  0  0  0  0  0  0  0
   -0.5224   28.7624    6.9676 C   0  0  0  0  0  0  0  0  0  0  0  0
   -0.6391   27.5561    6.3840 C   0  0  0  0  0  0  0  0  0  0  0  0
   -1.9135   27.1248    5.9235 C   0  0  0  0  0  0  0  0  0  0  0  0
   -2.3807   25.9900    5.3090 C   0  0  0  0  0  0  0  0  0  0  0  0
   -3.7733   26.2046    5.1239 C   0  0  0  0  0  0  0  0  0  0  0  0
   -4.1356   27.4054    5.6061 N   0  0  0  0  0  0  0  0  0  0  0  0
   -3.0075   27.9752    6.0995 N   0  0  0  0  0  0  0  0  0  0  0  0
 16 17  1  0  0  0
 17 18  2  0  0  0
 18 19  1  0  0  0
 19 20  2  0  0  0
 20 21  1  0  0  0
 21 22  2  0  0  0
 22 23  1  0  0  0
 23  1  1  0  0  0
  1  2  2  0  0  0
  1  3  1  0  0  0
  3  5  1  0  0  0
  5  6  1  0  0  0
  6  7  2  0  0  0
  7  8  1  0  0  0
  8  9  2  0  0  0
  9 10  1  0  0  0
 10 11  1  0  0  0
 11 12  1  0  0  0
 12 13  1  0  0  0
 13 14  1  0  0  0
 23 24  2  0  0  0
 24 25  1  0  0  0
 25 17  1  0  0  0
 25 21  1  0  0  0
 10  5  2  0  0  0
 14  9  1  0  0  0
  3  4  1  0  0  0
 12 15  1  0  0  0
M  END
> <minimizedAffinity>
-9.69602

$$$$
OCNT-2314267


 27 30  0  0  0  0  0  0  0  0999 V2000
   -4.2374   26.5940    5.1687 C   0  0  0  0  0  0  0  0  0  0  0  0
   -5.1559   27.4166    4.6331 N   0  0  0  0  0  0  0  0  0  0  0  0
   -6.1559   26.5564    4.1892 O   0  0  0  0  0  0  0  0  0  0  0  0
   -5.7556   25.2947    4.5141 C   0  0  0  0  0  0  0  0  0  0  0  0
   -4.5981   25.2631    5.1373 N   0  0  0  0  0  0  0  0  0  0  0  0
   -1.8275   29.6759    8.2681 C   0  0  0  0  0  0  0  0  0  0  0  0
   -1.7769   28.5525    7.2742 C   0  0  0  0  0  0  0  0  0  0  0  0
   -2.9721   28.0953    6.6900 C   0  0  0  0  0  0  0  0  0  0  0  0
   -2.9793   27.0443    5.7564 C   0  0  0  0  0  0  0  0  0  0  0  0
   -1.7619   26.4450    5.4090 C   0  0  0  0  0  0  0  0  0  0  0  0
   -0.5681   26.8885    5.9808 C   0  0  0  0  0  0  0  0  0  0  0  0
   -0.5799   27.9305    6.9048 C   0  0  0  0  0  0  0  0  0  0  0  0
    0.6337   28.2936    7.4148 O   0  0  0  0  0  0  0  0  0  0  0  0
    0.5081   28.9854    8.0822 H   0  0  0  0  0  0  0  0  0  0  0  0
   -6.6961   24.1938    4.1670 C   0  0  0  0  0  0  0  0  0  0  0  0
   -7.6780   23.9237    5.3128 C   0  0  0  0  0  0  0  0  0  0  0  0
   -8.0293   22.4599    5.1182 C   0  0  0  0  0  0  0  0  0  0  0  0
   -6.6923   21.8368    4.7434 C   0  0  0  0  0  0  0  0  0  0  0  0
   -5.9888   22.8997    4.0064 N   0  0  0  0  0  0  0  0  0  0  0  0
   -5.2438   22.5440    2.5495 S   0  0  0  0  0  0  0  0  0  0  0  0
   -5.4340   21.1301    2.3004 O   0  0  0  0  0  0  0  0  0  0  0  0
   -3.9336   23.1532    2.5262 O   0  0  0  0  0  0  0  0  0  0  0  0
   -6.1708   23.3223    1.2317 C   0  0  0  0  0  0  0  0  0  0  0  0
   -7.3002   22.9125    0.5452 C   0  0  0  0  0  0  0  0  0  0  0  0
   -7.7152   23.8567   -0.4371 C   0  0  0  0  0  0  0  0  0  0  0  0
   -6.8875   24.9564   -0.4717 C   0  0  0  0  0  0  0  0  0  0  0  0
   -5.6223   24.8431    0.6736 S   0  0  0  0  0  0  0  0  0  0  0  0
  6  7  1  0  0  0
  7  8  1  0  0  0
  8  9  2  0  0  0
  9  1  1  0  0  0
  1  2  2  0  0  0
  2  3  1  0  0  0
  3  4  1  0  0  0
  4 15  1  0  0  0
 15 16  1  0  0  0
 16 17  1  0  0  0
 17 18  1  0  0  0
 18 19  1  0  0  0
 19 20  1  0  0  0
 20 21  2  0  0  0
 20 22  2  0  0  0
 20 23  1  0  0  0
 23 24  2  0  0  0
 24 25  1  0  0  0
 25 26  2  0  0  0
 26 27  1  0  0  0
  4  5  2  0  0  0
  9 10  1  0  0  0
 10 11  2  0  0  0
 11 12  1  0  0  0
 12 13  1  0  0  0
 12  7  2  0  0  0
  5  1  1  0  0  0
 19 15  1  0  0  0
 27 23  1  0  0  0
 13 14  1  0  0  0
M  END
> <minimizedAffinity>
-9.33224

$$$$
OCNT-2314271


 26 28  0  0  0  0  0  0  0  0999 V2000
   -5.1301   33.1497    8.0274 C   0  0  0  0  0  0  0  0  0  0  0  0
   -4.8289   31.7653    8.4120 N   0  0  0  0  0  0  0  0  0  0  0  0
   -3.8686   31.1479    7.4813 C   0  0  0  0  0  0  0  0  0  0  0  0
   -2.5187   30.9504    8.0838 C   0  0  0  0  0  0  0  0  0  0  0  0
   -1.9027   31.8023    8.9861 C   0  0  0  0  0  0  0  0  0  0  0  0
   -0.6979   31.1891    9.3173 C   0  0  0  0  0  0  0  0  0  0  0  0
   -0.5306   30.0375    8.6806 N   0  0  0  0  0  0  0  0  0  0  0  0
   -1.6331   29.8875    7.8803 N   0  0  0  0  0  0  0  0  0  0  0  0
   -1.6733   28.7377    7.0190 C   0  0  0  0  0  0  0  0  0  0  0  0
   -0.4493   28.1657    6.6070 C   0  0  0  0  0  0  0  0  0  0  0  0
   -0.4179   27.0470    5.7691 C   0  0  0  0  0  0  0  0  0  0  0  0
   -1.6088   26.4922    5.3303 C   0  0  0  0  0  0  0  0  0  0  0  0
   -1.5864   25.4212    4.5268 F   0  0  0  0  0  0  0  0  0  0  0  0
   -2.8257   27.0393    5.7107 C   0  0  0  0  0  0  0  0  0  0  0  0
   -2.8590   28.1616    6.5497 C   0  0  0  0  0  0  0  0  0  0  0  0
   -6.0639   30.9532    8.4583 C   0  0  0  0  0  0  0  0  0  0  0  0
   -5.9847   29.5731    7.7636 C   0  0  0  0  0  0  0  0  0  0  0  0
   -6.1118   28.5738    8.7878 O   0  0  0  0  0  0  0  0  0  0  0  0
   -5.9986   27.7104    8.3489 H   0  0  0  0  0  0  0  0  0  0  0  0
   -7.0984   29.3941    6.7165 C   0  0  0  0  0  0  0  0  0  0  0  0
   -6.5990   28.7245    5.4548 C   0  0  0  0  0  0  0  0  0  0  0  0
   -6.3002   29.4835    4.3151 C   0  0  0  0  0  0  0  0  0  0  0  0
   -5.8601   28.8601    3.1469 C   0  0  0  0  0  0  0  0  0  0  0  0
   -5.7145   27.4746    3.1070 C   0  0  0  0  0  0  0  0  0  0  0  0
   -6.0073   26.7111    4.2354 C   0  0  0  0  0  0  0  0  0  0  0  0
   -6.4480   27.3321    5.4047 C   0  0  0  0  0  0  0  0  0  0  0  0
  1  2  1  0  0  0
  2  3  1  0  0  0
  3  4  1  0  0  0
  4  5  2  0  0  0
  5  6  1  0  0  0
  6  7  2  0  0  0
  7  8  1  0  0  0
  8  9  1  0  0  0
  9 10  1  0  0  0
 10 11  2  0  0  0
 11 12  1  0  0  0
 12 13  1  0  0  0
 12 14  2  0  0  0
 14 15  1  0  0  0
  2 16  1  0  0  0
 16 17  1  0  0  0
 17 18  1  0  0  0
 17 20  1  0  0  0
 20 21  1  0  0  0
 21 22  2  0  0  0
 22 23  1  0  0  0
 23 24  2  0  0  0
 24 25  1  0  0  0
 25 26  2  0  0  0
  8  4  1  0  0  0
 15  9  2  0  0  0
 26 21  1  0  0  0
 18 19  1  0  0  0
M  END
> <minimizedAffinity>
-8.72404

$$$$
OCNT-2314275


 24 26  0  0  0  0  0  0  0  0999 V2000
   -4.5738   26.8643    3.8793 C   0  0  0  0  0  0  0  0  0  0  0  0
   -4.9111   25.6658    2.9961 C   0  0  0  0  0  0  0  0  0  0  0  0
   -4.4087   24.3973    3.3321 C   0  0  0  0  0  0  0  0  0  0  0  0
   -4.7186   23.2781    2.5555 C   0  0  0  0  0  0  0  0  0  0  0  0
   -5.5365   23.4165    1.4378 C   0  0  0  0  0  0  0  0  0  0  0  0
   -5.9198   22.0384    0.4819 Cl  0  0  0  0  0  0  0  0  0  0  0  0
   -6.0481   24.6639    1.0912 C   0  0  0  0  0  0  0  0  0  0  0  0
   -5.7391   25.7835    1.8682 C   0  0  0  0  0  0  0  0  0  0  0  0
   -5.7924   27.4562    4.6458 C   0  0  0  0  0  0  0  0  0  0  0  0
   -6.8016   29.4022    5.7228 C   0  0  0  0  0  0  0  0  0  0  0  0
   -5.8181   28.9308    4.7473 N   0  0  0  0  0  0  0  0  0  0  0  0
   -6.0992   29.5214    3.4361 C   0  0  0  0  0  0  0  0  0  0  0  0
   -3.4564   26.4616    4.8706 C   0  0  0  0  0  0  0  0  0  0  0  0
   -3.5734   27.1991    6.1299 N   0  0  0  0  0  0  0  0  0  0  0  0
   -4.4334   27.7427    6.1930 H   0  0  0  0  0  0  0  0  0  0  0  0
   -2.5148   27.7993    6.8174 C   0  0  0  0  0  0  0  0  0  0  0  0
   -1.2191   27.4689    6.6611 C   0  0  0  0  0  0  0  0  0  0  0  0
   -0.2309   28.2279    7.4707 C   0  0  0  0  0  0  0  0  0  0  0  0
   -0.4857   29.1764    8.3136 N   0  0  0  0  0  0  0  0  0  0  0  0
   -1.8024   29.4928    8.4696 C   0  0  0  0  0  0  0  0  0  0  0  0
   -2.3346   30.4071    9.2564 N   0  0  0  0  0  0  0  0  0  0  0  0
   -3.6866   30.3278    9.0727 C   0  0  0  0  0  0  0  0  0  0  0  0
   -4.0017   29.3567    8.1548 C   0  0  0  0  0  0  0  0  0  0  0  0
   -2.7980   28.8238    7.7513 N   0  0  0  0  0  0  0  0  0  0  0  0
 10 11  1  0  0  0
 11 12  1  0  0  0
 11  9  1  0  0  0
  9  1  1  0  0  0
  1 13  1  0  0  0
 13 14  1  0  0  0
 14 16  1  0  0  0
 16 17  2  0  0  0
 17 18  1  0  0  0
 18 19  2  0  0  0
 19 20  1  0  0  0
 20 21  2  0  0  0
 21 22  1  0  0  0
 22 23  2  0  0  0
 23 24  1  0  0  0
  1  2  1  0  0  0
  2  3  1  0  0  0
  3  4  2  0  0  0
  4  5  1  0  0  0
  5  6  1  0  0  0
  5  7  2  0  0  0
  7  8  1  0  0  0
 24 16  1  0  0  0
  8  2  2  0  0  0
 24 20  1  0  0  0
 14 15  1  0  0  0
M  END
> <minimizedAffinity>
-7.91354

$$$$
OCNT-2314296


 29 32  0  0  0  0  0  0  0  0999 V2000
   -2.6596   25.9242    4.0667 C   0  0  0  0  0  0  0  0  0  0  0  0
   -1.6240   26.1224    3.4393 O   0  0  0  0  0  0  0  0  0  0  0  0
   -2.7647   26.1478    5.4186 N   0  0  0  0  0  0  0  0  0  0  0  0
   -3.6573   26.0370    5.8725 H   0  0  0  0  0  0  0  0  0  0  0  0
   -5.8218   23.2661    1.3290 C   0  0  0  0  0  0  0  0  0  0  0  0
   -5.2487   24.2901    2.1684 N   0  0  0  0  0  0  0  0  0  0  0  0
   -3.9815   24.3371    2.6510 C   0  0  0  0  0  0  0  0  0  0  0  0
   -3.8840   25.4957    3.4027 C   0  0  0  0  0  0  0  0  0  0  0  0
   -5.2005   26.0568    3.3435 C   0  0  0  0  0  0  0  0  0  0  0  0
   -5.9999   25.3378    2.5374 N   0  0  0  0  0  0  0  0  0  0  0  0
   -5.7318   27.2435    4.0068 C   0  0  0  0  0  0  0  0  0  0  0  0
   -6.1568   27.1942    5.3352 C   0  0  0  0  0  0  0  0  0  0  0  0
   -6.6034   28.3653    5.9220 C   0  0  0  0  0  0  0  0  0  0  0  0
   -6.6458   29.5558    5.2838 N   0  0  0  0  0  0  0  0  0  0  0  0
   -6.2728   29.5667    3.9865 C   0  0  0  0  0  0  0  0  0  0  0  0
   -5.8124   28.4510    3.3115 C   0  0  0  0  0  0  0  0  0  0  0  0
   -1.6078   26.3975    6.2460 C   0  0  0  0  0  0  0  0  0  0  0  0
   -1.9162   27.5470    7.1457 C   0  0  0  0  0  0  0  0  0  0  0  0
   -1.0509   28.3288    7.7593 N   0  0  0  0  0  0  0  0  0  0  0  0
   -1.8009   29.2455    8.4489 C   0  0  0  0  0  0  0  0  0  0  0  0
   -3.1518   29.0080    8.2950 C   0  0  0  0  0  0  0  0  0  0  0  0
   -3.2021   27.9201    7.4547 N   0  0  0  0  0  0  0  0  0  0  0  0
   -4.0459   27.4835    7.1120 H   0  0  0  0  0  0  0  0  0  0  0  0
   -4.3268   29.6860    8.8250 C   0  0  0  0  0  0  0  0  0  0  0  0
   -4.5185   31.0592    8.6215 C   0  0  0  0  0  0  0  0  0  0  0  0
   -5.6506   31.7008    9.1302 C   0  0  0  0  0  0  0  0  0  0  0  0
   -6.6006   30.9770    9.8477 C   0  0  0  0  0  0  0  0  0  0  0  0
   -6.4231   29.6103   10.0520 C   0  0  0  0  0  0  0  0  0  0  0  0
   -5.2934   28.9673    9.5400 C   0  0  0  0  0  0  0  0  0  0  0  0
  5  6  1  0  0  0
  6  7  1  0  0  0
  7  8  2  0  0  0
  8  1  1  0  0  0
  1  2  2  0  0  0
  1  3  1  0  0  0
  3 17  1  0  0  0
 17 18  1  0  0  0
 18 19  2  0  0  0
 19 20  1  0  0  0
 20 21  2  0  0  0
 21 24  1  0  0  0
 24 25  2  0  0  0
 25 26  1  0  0  0
 26 27  2  0  0  0
 27 28  1  0  0  0
 28 29  2  0  0  0
 21 22  1  0  0  0
  8  9  1  0  0  0
  9 11  1  0  0  0
 11 12  2  0  0  0
 12 13  1  0  0  0
 13 14  2  0  0  0
 14 15  1  0  0  0
 15 16  2  0  0  0
  9 10  2  0  0  0
 10  6  1  0  0  0
 22 18  1  0  0  0
 16 11  1  0  0  0
 29 24  1  0  0  0
  3  4  1  0  0  0
 22 23  1  0  0  0
M  END
> <minimizedAffinity>
-9.60968

$$$$
OCNT-2314324


 28 30  0  0  0  0  0  0  0  0999 V2000
   -2.0901   27.3641    5.9169 C   0  0  0  0  0  0  0  0  0  0  0  0
   -0.9436   26.8148    5.3237 C   0  0  0  0  0  0  0  0  0  0  0  0
   -1.0655   25.7823    4.3903 C   0  0  0  0  0  0  0  0  0  0  0  0
   -2.3269   25.2881    4.0573 C   0  0  0  0  0  0  0  0  0  0  0  0
   -3.4650   25.8251    4.6686 C   0  0  0  0  0  0  0  0  0  0  0  0
   -3.3568   26.8690    5.5900 C   0  0  0  0  0  0  0  0  0  0  0  0
   -2.7151   29.5716    6.6383 N   0  0  0  0  0  0  0  0  0  0  0  0
   -1.9935   28.4410    6.9377 C   0  0  0  0  0  0  0  0  0  0  0  0
   -1.3197   28.2170    7.9343 O   0  0  0  0  0  0  0  0  0  0  0  0
   -3.3325   29.6037    5.8422 H   0  0  0  0  0  0  0  0  0  0  0  0
   -3.5522   32.5445    8.7137 C   0  0  0  0  0  0  0  0  0  0  0  0
   -2.1791   32.3906    8.7012 C   0  0  0  0  0  0  0  0  0  0  0  0
   -1.7031   31.3222    7.9688 N   0  0  0  0  0  0  0  0  0  0  0  0
   -2.7089   30.6778    7.4410 C   0  0  0  0  0  0  0  0  0  0  0  0
   -4.2656   31.3011    7.7682 S   0  0  0  0  0  0  0  0  0  0  0  0
   -4.9005   34.6237    8.4162 C   0  0  0  0  0  0  0  0  0  0  0  0
   -4.3800   33.5831    9.3961 C   0  0  0  0  0  0  0  0  0  0  0  0
   -5.0633   25.1932    4.2208 S   0  0  0  0  0  0  0  0  0  0  0  0
   -5.3227   23.9972    4.9927 O   0  0  0  0  0  0  0  0  0  0  0  0
   -5.9835   26.3107    4.2368 O   0  0  0  0  0  0  0  0  0  0  0  0
   -4.8337   24.7219    2.5991 N   0  0  0  0  0  0  0  0  0  0  0  0
   -4.7640   23.2412    2.3493 C   0  0  0  0  0  0  0  0  0  0  0  0
   -6.0654   22.7290    1.7086 C   0  0  0  0  0  0  0  0  0  0  0  0
   -6.0262   21.2202    1.5104 C   0  0  0  0  0  0  0  0  0  0  0  0
   -6.3137   23.3265    0.4233 O   0  0  0  0  0  0  0  0  0  0  0  0
   -5.8142   24.6701    0.3047 C   0  0  0  0  0  0  0  0  0  0  0  0
   -6.6974   25.3980   -0.6993 C   0  0  0  0  0  0  0  0  0  0  0  0
   -5.7771   25.4084    1.6536 C   0  0  0  0  0  0  0  0  0  0  0  0
 16 17  1  0  0  0
 17 11  1  0  0  0
 11 12  2  0  0  0
 12 13  1  0  0  0
 13 14  2  0  0  0
 14  7  1  0  0  0
  7  8  1  0  0  0
  8  9  2  0  0  0
  8  1  1  0  0  0
  1  2  1  0  0  0
  2  3  2  0  0  0
  3  4  1  0  0  0
  4  5  2  0  0  0
  5 18  1  0  0  0
 18 19  2  0  0  0
 18 20  2  0  0  0
 18 21  1  0  0  0
 21 22  1  0  0  0
 22 23  1  0  0  0
 23 24  1  0  0  0
 23 25  1  0  0  0
 25 26  1  0  0  0
 26 27  1  0  0  0
 26 28  1  0  0  0
  5  6  1  0  0  0
 14 15  1  0  0  0
 15 11  1  0  0  0
  6  1  2  0  0  0
 28 21  1  0  0  0
  7 10  1  0  0  0
M  END
> <minimizedAffinity>
-9.76305

$$$$
OCNT-2314329


 28 30  0  0  0  0  0  0  0  0999 V2000
   -5.9722   25.0606    3.6309 N   0  0  0  0  0  0  0  0  0  0  0  0
   -5.7550   26.4467    3.5590 C   0  0  0  0  0  0  0  0  0  0  0  0
   -5.8838   27.0406    2.4851 O   0  0  0  0  0  0  0  0  0  0  0  0
   -5.3891   27.2285    4.7575 C   0  0  0  0  0  0  0  0  0  0  0  0
   -6.3479   27.9031    5.5005 C   0  0  0  0  0  0  0  0  0  0  0  0
   -5.6361   28.7230    6.8207 S   0  0  0  0  0  0  0  0  0  0  0  0
   -4.0961   28.1830    6.3064 C   0  0  0  0  0  0  0  0  0  0  0  0
   -4.0889   27.4179    5.2311 N   0  0  0  0  0  0  0  0  0  0  0  0
   -2.8902   28.5345    6.9840 C   0  0  0  0  0  0  0  0  0  0  0  0
   -2.1344   29.5963    6.7960 N   0  0  0  0  0  0  0  0  0  0  0  0
   -1.0678   29.5153    7.6674 N   0  0  0  0  0  0  0  0  0  0  0  0
   -1.2008   28.4076    8.3590 C   0  0  0  0  0  0  0  0  0  0  0  0
   -2.3352   27.7662    7.9711 N   0  0  0  0  0  0  0  0  0  0  0  0
   -2.7034   26.8913    8.3125 H   0  0  0  0  0  0  0  0  0  0  0  0
   -6.3713   24.3937    2.3845 C   0  0  0  0  0  0  0  0  0  0  0  0
   -5.3044   23.4336    1.8399 C   0  0  0  0  0  0  0  0  0  0  0  0
   -5.9558   21.0333    1.4834 C   0  0  0  0  0  0  0  0  0  0  0  0
   -5.8653   22.4148    0.8307 C   0  0  0  0  0  0  0  0  0  0  0  0
   -7.2357   22.8250    0.2915 C   0  0  0  0  0  0  0  0  0  0  0  0
   -5.9864   24.2424    4.8455 C   0  0  0  0  0  0  0  0  0  0  0  0
   -7.2777   23.4822    5.0437 C   0  0  0  0  0  0  0  0  0  0  0  0
   -7.3939   22.1411    4.6553 C   0  0  0  0  0  0  0  0  0  0  0  0
   -8.5853   21.4405    4.8629 C   0  0  0  0  0  0  0  0  0  0  0  0
   -9.6787   22.0701    5.4621 C   0  0  0  0  0  0  0  0  0  0  0  0
  -11.1164   21.1409    5.6944 Cl  0  0  0  0  0  0  0  0  0  0  0  0
   -9.5786   23.4090    5.8498 C   0  0  0  0  0  0  0  0  0  0  0  0
  -10.8838   24.2583    6.5983 Cl  0  0  0  0  0  0  0  0  0  0  0  0
   -8.3850   24.1096    5.6382 C   0  0  0  0  0  0  0  0  0  0  0  0
 17 18  1  0  0  0
 18 19  1  0  0  0
 18 16  1  0  0  0
 16 15  1  0  0  0
 15  1  1  0  0  0
  1 20  1  0  0  0
 20 21  1  0  0  0
 21 22  1  0  0  0
 22 23  2  0  0  0
 23 24  1  0  0  0
 24 25  1  0  0  0
 24 26  2  0  0  0
 26 27  1  0  0  0
 26 28  1  0  0  0
  1  2  1  0  0  0
  2  3  2  0  0  0
  2  4  1  0  0  0
  4  5  2  0  0  0
  5  6  1  0  0  0
  6  7  1  0  0  0
  7  9  1  0  0  0
  9 10  2  0  0  0
 10 11  1  0  0  0
 11 12  2  0  0  0
 12 13  1  0  0  0
  7  8  2  0  0  0
 28 21  2  0  0  0
  8  4  1  0  0  0
 13  9  1  0  0  0
 13 14  1  0  0  0
M  END
> <minimizedAffinity>
-8.42628

$$$$
OCNT-2314338


 32 33  0  0  0  0  0  0  0  0999 V2000
   -0.7996   28.4245    8.1713 N   0  0  0  0  0  0  0  0  0  0  0  0
   -0.5614   27.9213    6.9167 C   0  0  0  0  0  0  0  0  0  0  0  0
    0.1765   28.4325    6.0868 O   0  0  0  0  0  0  0  0  0  0  0  0
   -1.2551   26.7624    6.7096 N   0  0  0  0  0  0  0  0  0  0  0  0
   -1.7389   28.2408    8.4951 H   0  0  0  0  0  0  0  0  0  0  0  0
   -1.6718   26.2937    7.5058 H   0  0  0  0  0  0  0  0  0  0  0  0
   -0.2547   29.7154    8.5489 C   0  0  0  0  0  0  0  0  0  0  0  0
   -3.2455   32.8413    8.6176 C   0  0  0  0  0  0  0  0  0  0  0  0
   -2.7649   32.3178    9.8260 C   0  0  0  0  0  0  0  0  0  0  0  0
   -1.7920   31.3094    9.8247 C   0  0  0  0  0  0  0  0  0  0  0  0
   -1.2747   30.8247    8.6115 C   0  0  0  0  0  0  0  0  0  0  0  0
   -1.7805   31.3501    7.4153 C   0  0  0  0  0  0  0  0  0  0  0  0
   -1.3435   30.8774    6.2358 F   0  0  0  0  0  0  0  0  0  0  0  0
   -2.7521   32.3508    7.4065 C   0  0  0  0  0  0  0  0  0  0  0  0
   -5.0524   34.7034    8.6235 N   0  0  0  0  0  0  0  0  0  0  0  0
   -4.2523   33.8605    8.6325 C   0  0  0  0  0  0  0  0  0  0  0  0
   -1.1703   26.0330    5.4570 C   0  0  0  0  0  0  0  0  0  0  0  0
   -2.3442   26.3701    4.5298 C   0  0  0  0  0  0  0  0  0  0  0  0
   -2.6262   25.2514    3.6732 O   0  0  0  0  0  0  0  0  0  0  0  0
   -3.4582   25.4769    3.2176 H   0  0  0  0  0  0  0  0  0  0  0  0
   -3.5994   26.7370    5.3277 C   0  0  0  0  0  0  0  0  0  0  0  0
   -3.5204   28.1436    5.6104 O   0  0  0  0  0  0  0  0  0  0  0  0
   -4.6033   28.7267    6.2083 C   0  0  0  0  0  0  0  0  0  0  0  0
   -5.6937   28.9385    5.3607 C   0  0  0  0  0  0  0  0  0  0  0  0
   -6.8559   29.5431    5.8357 C   0  0  0  0  0  0  0  0  0  0  0  0
   -6.9402   29.9451    7.1677 C   0  0  0  0  0  0  0  0  0  0  0  0
   -5.8602   29.7382    8.0340 C   0  0  0  0  0  0  0  0  0  0  0  0
   -4.6941   29.1126    7.5467 C   0  0  0  0  0  0  0  0  0  0  0  0
   -5.9433   30.1440    9.4852 C   0  0  0  0  0  0  0  0  0  0  0  0
   -6.9123   29.4583   10.1558 F   0  0  0  0  0  0  0  0  0  0  0  0
   -6.2202   31.4659    9.6703 F   0  0  0  0  0  0  0  0  0  0  0  0
   -4.7815   29.9092   10.1604 F   0  0  0  0  0  0  0  0  0  0  0  0
 15 16  3  0  0  0
 16  8  1  0  0  0
  8  9  1  0  0  0
  9 10  2  0  0  0
 10 11  1  0  0  0
 11  7  1  0  0  0
  7  1  1  0  0  0
  1  2  1  0  0  0
  2  3  2  0  0  0
  2  4  1  0  0  0
  4 17  1  0  0  0
 17 18  1  0  0  0
 18 19  1  0  0  0
 18 21  1  0  0  0
 21 22  1  0  0  0
 22 23  1  0  0  0
 23 24  1  0  0  0
 24 25  2  0  0  0
 25 26  1  0  0  0
 26 27  2  0  0  0
 27 29  1  0  0  0
 29 30  1  0  0  0
 29 31  1  0  0  0
 29 32  1  0  0  0
 27 28  1  0  0  0
 11 12  2  0  0  0
 12 13  1  0  0  0
 12 14  1  0  0  0
 14  8  2  0  0  0
 28 23  2  0  0  0
  1  5  1  0  0  0
  4  6  1  0  0  0
 19 20  1  0  0  0
M  END
> <minimizedAffinity>
-8.85097

$$$$
OCNT-2314342


 23 24  0  0  0  0  0  0  0  0999 V2000
   -4.8350   24.9365    3.9796 N   0  0  0  0  0  0  0  0  0  0  0  0
   -4.3110   26.2044    3.8574 C   0  0  0  0  0  0  0  0  0  0  0  0
   -4.7730   27.0490    3.0959 O   0  0  0  0  0  0  0  0  0  0  0  0
   -4.4581   24.3212    4.6899 H   0  0  0  0  0  0  0  0  0  0  0  0
   -3.0787   26.5125    4.6341 C   0  0  0  0  0  0  0  0  0  0  0  0
   -1.9051   25.8888    4.1706 C   0  0  0  0  0  0  0  0  0  0  0  0
   -0.6881   26.0837    4.8191 C   0  0  0  0  0  0  0  0  0  0  0  0
   -0.6290   26.9098    5.9365 C   0  0  0  0  0  0  0  0  0  0  0  0
   -1.7848   27.5496    6.4005 C   0  0  0  0  0  0  0  0  0  0  0  0
   -1.5782   28.6649    7.9309 Br  0  0  0  0  0  0  0  0  0  0  0  0
   -3.0199   27.3628    5.7519 C   0  0  0  0  0  0  0  0  0  0  0  0
   -4.4270   28.2130    6.3128 Cl  0  0  0  0  0  0  0  0  0  0  0  0
   -6.0419   24.5273    3.2835 C   0  0  0  0  0  0  0  0  0  0  0  0
   -5.8265   23.5431    2.0749 C   0  0  0  0  0  0  0  0  0  0  0  0
   -6.7900   23.9996    0.9516 C   0  0  0  0  0  0  0  0  0  0  0  0
   -6.0641   25.1412    0.2380 C   0  0  0  0  0  0  0  0  0  0  0  0
   -4.6591   25.0922    0.6587 N   0  0  0  0  0  0  0  0  0  0  0  0
   -4.4874   23.8118    1.3571 C   0  0  0  0  0  0  0  0  0  0  0  0
   -4.4966   25.8460    1.3428 H   0  0  0  0  0  0  0  0  0  0  0  0
   -6.0042   21.0900    1.2443 C   0  0  0  0  0  0  0  0  0  0  0  0
   -6.0354   22.0155    2.4850 C   0  0  0  0  0  0  0  0  0  0  0  0
   -7.3855   21.7928    3.2010 C   0  0  0  0  0  0  0  0  0  0  0  0
   -4.9427   21.4924    3.4533 C   0  0  0  0  0  0  0  0  0  0  0  0
 20 21  1  0  0  0
 21 22  1  0  0  0
 21 23  1  0  0  0
 21 14  1  0  0  0
 14 13  1  0  0  0
 13  1  1  0  0  0
  1  2  1  0  0  0
  2  3  2  0  0  0
  2  5  1  0  0  0
  5  6  2  0  0  0
  6  7  1  0  0  0
  7  8  2  0  0  0
  8  9  1  0  0  0
  9 10  1  0  0  0
  9 11  2  0  0  0
 11 12  1  0  0  0
 14 15  1  0  0  0
 15 16  1  0  0  0
 16 17  1  0  0  0
 17 18  1  0  0  0
 18 14  1  0  0  0
 11  5  1  0  0  0
  1  4  1  0  0  0
 17 19  1  0  0  0
M  END
> <minimizedAffinity>
-8.15175

$$$$
OCNT-2314356


 26 29  0  0  0  0  0  0  0  0999 V2000
   -5.5550   28.1011    4.0208 O   0  0  0  0  0  0  0  0  0  0  0  0
   -5.0917   27.0339    4.4092 C   0  0  0  0  0  0  0  0  0  0  0  0
   -4.2889   26.9124    5.5206 N   0  0  0  0  0  0  0  0  0  0  0  0
   -3.8909   26.0013    5.7289 H   0  0  0  0  0  0  0  0  0  0  0  0
   -5.3685   25.7629    3.6804 C   0  0  0  0  0  0  0  0  0  0  0  0
   -5.7764   25.7763    2.3577 C   0  0  0  0  0  0  0  0  0  0  0  0
   -6.0209   24.5563    1.7252 C   0  0  0  0  0  0  0  0  0  0  0  0
   -5.8155   23.3873    2.4590 C   0  0  0  0  0  0  0  0  0  0  0  0
   -6.0825   22.0284    1.8727 C   0  0  0  0  0  0  0  0  0  0  0  0
   -6.1186   22.0340    0.3459 C   0  0  0  0  0  0  0  0  0  0  0  0
   -6.9954   23.1745   -0.1596 C   0  0  0  0  0  0  0  0  0  0  0  0
   -6.4267   24.5249    0.2764 C   0  0  0  0  0  0  0  0  0  0  0  0
   -5.4194   23.4176    3.7546 N   0  0  0  0  0  0  0  0  0  0  0  0
   -5.1908   24.6135    4.3736 N   0  0  0  0  0  0  0  0  0  0  0  0
   -3.8611   28.0631    6.2719 C   0  0  0  0  0  0  0  0  0  0  0  0
   -2.4118   27.9118    6.5794 C   0  0  0  0  0  0  0  0  0  0  0  0
   -1.5683   26.9238    6.1054 C   0  0  0  0  0  0  0  0  0  0  0  0
   -0.3191   27.1356    6.6220 N   0  0  0  0  0  0  0  0  0  0  0  0
   -0.3220   28.2453    7.4346 C   0  0  0  0  0  0  0  0  0  0  0  0
    0.7209   28.8278    8.1673 C   0  0  0  0  0  0  0  0  0  0  0  0
    0.4216   29.9660    8.9200 C   0  0  0  0  0  0  0  0  0  0  0  0
   -0.8662   30.4859    8.9310 C   0  0  0  0  0  0  0  0  0  0  0  0
   -1.1230   31.5779    9.6644 F   0  0  0  0  0  0  0  0  0  0  0  0
   -1.8994   29.9014    8.1993 C   0  0  0  0  0  0  0  0  0  0  0  0
   -1.6229   28.7539    7.4293 C   0  0  0  0  0  0  0  0  0  0  0  0
    0.4922   26.5608    6.4396 H   0  0  0  0  0  0  0  0  0  0  0  0
  1  2  2  0  0  0
  2  3  1  0  0  0
  3 15  1  0  0  0
 15 16  1  0  0  0
 16 17  2  0  0  0
 17 18  1  0  0  0
 18 19  1  0  0  0
 19 20  2  0  0  0
 20 21  1  0  0  0
 21 22  2  0  0  0
 22 23  1  0  0  0
 22 24  1  0  0  0
 24 25  2  0  0  0
  2  5  1  0  0  0
  5  6  2  0  0  0
  6  7  1  0  0  0
  7  8  2  0  0  0
  8  9  1  0  0  0
  9 10  1  0  0  0
 10 11  1  0  0  0
 11 12  1  0  0  0
  8 13  1  0  0  0
 13 14  2  0  0  0
 25 16  1  0  0  0
 14  5  1  0  0  0
 25 19  1  0  0  0
 12  7  1  0  0  0
  3  4  1  0  0  0
 18 26  1  0  0  0
M  END
> <minimizedAffinity>
-10.35895

$$$$
OCNT-2314360


 31 34  0  0  0  0  0  0  0  0999 V2000
   -4.6649   30.7269    5.7992 C   0  0  0  0  0  0  0  0  0  0  0  0
   -4.5519   30.9393    7.3266 C   0  0  0  0  0  0  0  0  0  0  0  0
   -4.6263   29.5687    8.0375 C   0  0  0  0  0  0  0  0  0  0  0  0
   -5.0232   29.8794    9.4793 C   0  0  0  0  0  0  0  0  0  0  0  0
   -5.7639   31.2170    9.4345 C   0  0  0  0  0  0  0  0  0  0  0  0
   -5.7928   31.6278    7.9579 C   0  0  0  0  0  0  0  0  0  0  0  0
   -7.0161   31.1315    7.4189 O   0  0  0  0  0  0  0  0  0  0  0  0
   -7.1594   31.6012    6.5653 H   0  0  0  0  0  0  0  0  0  0  0  0
   -3.2718   31.7520    7.7142 C   0  0  0  0  0  0  0  0  0  0  0  0
   -1.9671   30.9904    7.8214 C   0  0  0  0  0  0  0  0  0  0  0  0
   -1.2974   30.8959    9.0520 C   0  0  0  0  0  0  0  0  0  0  0  0
   -0.0873   30.2060    9.1527 C   0  0  0  0  0  0  0  0  0  0  0  0
    0.4588   29.6140    8.0220 C   0  0  0  0  0  0  0  0  0  0  0  0
    1.6185   28.9539    8.1176 F   0  0  0  0  0  0  0  0  0  0  0  0
   -0.1754   29.7083    6.7902 C   0  0  0  0  0  0  0  0  0  0  0  0
   -1.3823   30.4024    6.6884 C   0  0  0  0  0  0  0  0  0  0  0  0
   -5.6923   28.9930    4.3432 C   0  0  0  0  0  0  0  0  0  0  0  0
   -6.2592   29.7947    3.6121 O   0  0  0  0  0  0  0  0  0  0  0  0
   -4.8871   29.3472    5.3988 N   0  0  0  0  0  0  0  0  0  0  0  0
   -4.6393   28.6278    6.0639 H   0  0  0  0  0  0  0  0  0  0  0  0
   -5.8022   25.1379    0.0676 C   0  0  0  0  0  0  0  0  0  0  0  0
   -5.9625   24.7819    1.4993 C   0  0  0  0  0  0  0  0  0  0  0  0
   -6.1561   23.5078    1.8635 N   0  0  0  0  0  0  0  0  0  0  0  0
   -6.2546   23.5651    3.2026 N   0  0  0  0  0  0  0  0  0  0  0  0
   -6.1507   24.8287    3.7205 C   0  0  0  0  0  0  0  0  0  0  0  0
   -6.2081   25.2996    5.0367 C   0  0  0  0  0  0  0  0  0  0  0  0
   -6.0598   26.6782    5.2237 C   0  0  0  0  0  0  0  0  0  0  0  0
   -5.8600   27.5350    4.1334 C   0  0  0  0  0  0  0  0  0  0  0  0
   -5.7855   27.0383    2.8231 C   0  0  0  0  0  0  0  0  0  0  0  0
   -5.9475   25.6561    2.6208 C   0  0  0  0  0  0  0  0  0  0  0  0
   -6.3951   22.6990    3.7082 H   0  0  0  0  0  0  0  0  0  0  0  0
 21 22  1  0  0  0
 22 23  2  0  0  0
 23 24  1  0  0  0
 24 25  1  0  0  0
 25 26  2  0  0  0
 26 27  1  0  0  0
 27 28  2  0  0  0
 28 17  1  0  0  0
 17 18  2  0  0  0
 17 19  1  0  0  0
 19  1  1  0  0  0
  1  2  1  0  0  0
  2  9  1  0  0  0
  9 10  1  0  0  0
 10 11  1  0  0  0
 11 12  2  0  0  0
 12 13  1  0  0  0
 13 14  1  0  0  0
 13 15  2  0  0  0
 15 16  1  0  0  0
  2  3  1  0  0  0
  3  4  1  0  0  0
  4  5  1  0  0  0
  5  6  1  0  0  0
  6  7  1  0  0  0
 28 29  1  0  0  0
 29 30  2  0  0  0
 30 22  1  0  0  0
 30 25  1  0  0  0
  6  2  1  0  0  0
 16 10  2  0  0  0
 24 31  1  0  0  0
 19 20  1  0  0  0
  7  8  1  0  0  0
M  END
> <minimizedAffinity>
-10.89435

$$$$
OCNT-2314371


 25 28  0  0  0  0  0  0  0  0999 V2000
   -6.2049   22.5174    4.4681 C   0  0  0  0  0  0  0  0  0  0  0  0
   -6.0699   21.4749    3.8338 O   0  0  0  0  0  0  0  0  0  0  0  0
   -5.6111   23.7182    4.1057 N   0  0  0  0  0  0  0  0  0  0  0  0
   -5.2191   24.7661    5.0423 C   0  0  0  0  0  0  0  0  0  0  0  0
   -3.8754   25.2534    4.5206 C   0  0  0  0  0  0  0  0  0  0  0  0
   -4.0282   25.1080    3.0134 C   0  0  0  0  0  0  0  0  0  0  0  0
   -4.8272   23.8027    2.8717 C   0  0  0  0  0  0  0  0  0  0  0  0
  -11.2990   24.3055    6.5855 C   0  0  0  0  0  0  0  0  0  0  0  0
  -10.2858   23.5273    7.3387 C   0  0  0  0  0  0  0  0  0  0  0  0
  -10.5152   23.1716    8.6113 N   0  0  0  0  0  0  0  0  0  0  0  0
   -9.3935   22.5056    8.9669 N   0  0  0  0  0  0  0  0  0  0  0  0
   -9.2746   21.9787   10.3028 C   0  0  0  0  0  0  0  0  0  0  0  0
   -8.4698   22.4037    7.9626 C   0  0  0  0  0  0  0  0  0  0  0  0
   -7.2650   21.7947    8.0202 N   0  0  0  0  0  0  0  0  0  0  0  0
   -6.5791   21.8812    6.8524 C   0  0  0  0  0  0  0  0  0  0  0  0
   -7.0382   22.4845    5.6855 C   0  0  0  0  0  0  0  0  0  0  0  0
   -8.2841   23.1192    5.6852 C   0  0  0  0  0  0  0  0  0  0  0  0
   -9.0265   23.0647    6.8745 C   0  0  0  0  0  0  0  0  0  0  0  0
   -5.6848   23.7893    1.6236 C   0  0  0  0  0  0  0  0  0  0  0  0
   -6.0665   22.5664    1.0469 C   0  0  0  0  0  0  0  0  0  0  0  0
   -6.8529   22.5327   -0.1089 C   0  0  0  0  0  0  0  0  0  0  0  0
   -7.2681   23.7220   -0.7032 C   0  0  0  0  0  0  0  0  0  0  0  0
   -6.8976   24.9338   -0.1347 C   0  0  0  0  0  0  0  0  0  0  0  0
   -7.2972   26.0794   -0.7035 F   0  0  0  0  0  0  0  0  0  0  0  0
   -6.1159   24.9790    1.0152 C   0  0  0  0  0  0  0  0  0  0  0  0
  8  9  1  0  0  0
  9 10  2  0  0  0
 10 11  1  0  0  0
 11 12  1  0  0  0
 11 13  1  0  0  0
 13 14  1  0  0  0
 14 15  2  0  0  0
 15 16  1  0  0  0
 16  1  1  0  0  0
  1  2  2  0  0  0
  1  3  1  0  0  0
  3  4  1  0  0  0
  4  5  1  0  0  0
  5  6  1  0  0  0
  6  7  1  0  0  0
  7 19  1  0  0  0
 19 20  2  0  0  0
 20 21  1  0  0  0
 21 22  2  0  0  0
 22 23  1  0  0  0
 23 24  1  0  0  0
 23 25  2  0  0  0
 16 17  2  0  0  0
 17 18  1  0  0  0
 18  9  1  0  0  0
 18 13  2  0  0  0
  7  3  1  0  0  0
 25 19  1  0  0  0
M  END
> <minimizedAffinity>
-9.68957

$$$$
OCNT-2314377


 26 30  0  0  0  0  0  0  0  0999 V2000
   -3.4450   25.1400    3.7012 O   0  0  0  0  0  0  0  0  0  0  0  0
   -4.3704   25.3492    4.4768 C   0  0  0  0  0  0  0  0  0  0  0  0
   -4.3384   26.2404    5.5272 N   0  0  0  0  0  0  0  0  0  0  0  0
   -5.5838   24.7029    4.3625 N   0  0  0  0  0  0  0  0  0  0  0  0
   -6.4884   24.2752    5.4322 C   0  0  0  0  0  0  0  0  0  0  0  0
   -6.8709   23.1357    4.5384 C   0  0  0  0  0  0  0  0  0  0  0  0
   -8.3301   22.9674    4.1676 C   0  0  0  0  0  0  0  0  0  0  0  0
   -8.0805   21.4398    4.2229 C   0  0  0  0  0  0  0  0  0  0  0  0
   -6.8379   21.7284    5.1014 C   0  0  0  0  0  0  0  0  0  0  0  0
   -5.8274   23.5136    3.5086 C   0  0  0  0  0  0  0  0  0  0  0  0
   -5.2242   26.4091    5.9799 H   0  0  0  0  0  0  0  0  0  0  0  0
   -3.2393   27.0196    5.9370 C   0  0  0  0  0  0  0  0  0  0  0  0
   -3.4348   28.3319    6.3179 C   0  0  0  0  0  0  0  0  0  0  0  0
   -2.4563   29.1633    6.7354 N   0  0  0  0  0  0  0  0  0  0  0  0
   -1.2046   28.6627    6.7840 C   0  0  0  0  0  0  0  0  0  0  0  0
   -0.9098   27.3951    6.4313 N   0  0  0  0  0  0  0  0  0  0  0  0
   -1.9284   26.6034    6.0171 C   0  0  0  0  0  0  0  0  0  0  0  0
   -0.0834   29.5636    7.2375 C   0  0  0  0  0  0  0  0  0  0  0  0
   -0.0484   30.0821    8.6583 C   0  0  0  0  0  0  0  0  0  0  0  0
    0.9511   29.0555    8.2172 C   0  0  0  0  0  0  0  0  0  0  0  0
   -6.2455   23.7804    1.9990 C   0  0  0  0  0  0  0  0  0  0  0  0
   -6.1237   25.0386    1.3738 C   0  0  0  0  0  0  0  0  0  0  0  0
   -6.5088   25.2509    0.0463 C   0  0  0  0  0  0  0  0  0  0  0  0
   -7.0303   24.2026   -0.7030 C   0  0  0  0  0  0  0  0  0  0  0  0
   -7.1631   22.9456   -0.1253 C   0  0  0  0  0  0  0  0  0  0  0  0
   -6.7746   22.7431    1.2025 C   0  0  0  0  0  0  0  0  0  0  0  0
  1  2  2  0  0  0
  2  3  1  0  0  0
  3 12  1  0  0  0
 12 13  2  0  0  0
 13 14  1  0  0  0
 14 15  2  0  0  0
 15 18  1  0  0  0
 18 19  1  0  0  0
 19 20  1  0  0  0
 15 16  1  0  0  0
 16 17  2  0  0  0
  2  4  1  0  0  0
  4  5  1  0  0  0
  5  6  1  0  0  0
  6  7  1  0  0  0
  7  8  1  0  0  0
  8  9  1  0  0  0
  6 10  1  0  0  0
 10 21  1  0  0  0
 21 22  2  0  0  0
 22 23  1  0  0  0
 23 24  2  0  0  0
 24 25  1  0  0  0
 25 26  2  0  0  0
 17 12  1  0  0  0
 10  4  1  0  0  0
 26 21  1  0  0  0
 20 18  1  0  0  0
  9  6  1  0  0  0
  3 11  1  0  0  0
M  END
> <minimizedAffinity>
-10.43694

$$$$
OCNT-2314380


 22 25  0  0  0  0  0  0  0  0999 V2000
   -4.9443   24.3713    3.2632 C   0  0  0  0  0  0  0  0  0  0  0  0
   -3.8106   23.9440    3.0388 O   0  0  0  0  0  0  0  0  0  0  0  0
   -6.0648   23.5713    3.1874 N   0  0  0  0  0  0  0  0  0  0  0  0
   -6.9736   23.9989    3.3040 H   0  0  0  0  0  0  0  0  0  0  0  0
   -5.6339   27.6317    4.1027 C   0  0  0  0  0  0  0  0  0  0  0  0
   -5.8104   26.9170    2.7282 C   0  0  0  0  0  0  0  0  0  0  0  0
   -5.2175   25.7934    3.6367 C   0  0  0  0  0  0  0  0  0  0  0  0
   -4.2558   26.9028    4.1632 C   0  0  0  0  0  0  0  0  0  0  0  0
   -6.2134   26.3206    4.7172 C   0  0  0  0  0  0  0  0  0  0  0  0
   -5.9747   29.0425    4.4564 C   0  0  0  0  0  0  0  0  0  0  0  0
   -6.2060   29.9296    3.6366 O   0  0  0  0  0  0  0  0  0  0  0  0
   -7.2569   29.7066    6.3073 C   0  0  0  0  0  0  0  0  0  0  0  0
   -6.0019   29.2410    5.8074 O   0  0  0  0  0  0  0  0  0  0  0  0
   -5.9986   22.1828    2.7824 C   0  0  0  0  0  0  0  0  0  0  0  0
   -6.7951   22.0568    1.4911 C   0  0  0  0  0  0  0  0  0  0  0  0
   -7.4419   23.3734    0.9659 C   0  0  0  0  0  0  0  0  0  0  0  0
   -7.1400   22.8710   -0.4591 C   0  0  0  0  0  0  0  0  0  0  0  0
   -5.9935   22.0449    0.1556 C   0  0  0  0  0  0  0  0  0  0  0  0
   -6.7531   21.3081    3.7861 C   0  0  0  0  0  0  0  0  0  0  0  0
   -8.1821   20.7571    3.5054 C   0  0  0  0  0  0  0  0  0  0  0  0
   -8.7537   21.8739    4.3953 C   0  0  0  0  0  0  0  0  0  0  0  0
   -7.3571   22.0397    5.0170 C   0  0  0  0  0  0  0  0  0  0  0  0
 12 13  1  0  0  0
 13 10  1  0  0  0
 10 11  2  0  0  0
 10  5  1  0  0  0
  5  6  1  0  0  0
  6  7  1  0  0  0
  7  1  1  0  0  0
  1  2  2  0  0  0
  1  3  1  0  0  0
  3 14  1  0  0  0
 14 15  1  0  0  0
 15 16  1  0  0  0
 16 17  1  0  0  0
 17 18  1  0  0  0
 14 19  1  0  0  0
 19 20  1  0  0  0
 20 21  1  0  0  0
 21 22  1  0  0  0
  7  8  1  0  0  0
  7  9  1  0  0  0
  8  5  1  0  0  0
  9  5  1  0  0  0
 18 15  1  0  0  0
 22 19  1  0  0  0
  3  4  1  0  0  0
M  END
> <minimizedAffinity>
-7.65010

$$$$
OCNT-2314381


 26 29  0  0  0  0  0  0  0  0999 V2000
   -4.0045   25.2730    3.9516 N   0  0  0  0  0  0  0  0  0  0  0  0
   -2.8735   25.7539    4.6170 C   0  0  0  0  0  0  0  0  0  0  0  0
   -2.9826   26.1704    5.8906 N   0  0  0  0  0  0  0  0  0  0  0  0
   -1.8932   26.6596    6.5099 C   0  0  0  0  0  0  0  0  0  0  0  0
   -0.6723   26.7633    5.9062 C   0  0  0  0  0  0  0  0  0  0  0  0
   -0.6419   26.3263    4.6059 C   0  0  0  0  0  0  0  0  0  0  0  0
   -1.7120   25.8263    3.9523 N   0  0  0  0  0  0  0  0  0  0  0  0
    0.5760   26.3815    3.8478 C   0  0  0  0  0  0  0  0  0  0  0  0
    1.5567   26.3864    3.2244 N   0  0  0  0  0  0  0  0  0  0  0  0
   -5.2657   25.5347    4.6554 C   0  0  0  0  0  0  0  0  0  0  0  0
   -7.2113   29.9921    5.9611 C   0  0  0  0  0  0  0  0  0  0  0  0
   -6.6125   28.8944    5.2421 N   0  0  0  0  0  0  0  0  0  0  0  0
   -6.3284   27.6507    5.7254 C   0  0  0  0  0  0  0  0  0  0  0  0
   -5.7654   26.9457    4.6786 C   0  0  0  0  0  0  0  0  0  0  0  0
   -5.7554   27.8736    3.6121 C   0  0  0  0  0  0  0  0  0  0  0  0
   -6.2718   29.0566    3.9526 N   0  0  0  0  0  0  0  0  0  0  0  0
   -3.9609   25.4255    2.4867 C   0  0  0  0  0  0  0  0  0  0  0  0
   -4.2886   24.1391    1.7090 C   0  0  0  0  0  0  0  0  0  0  0  0
   -4.5515   22.9574    2.6739 C   0  0  0  0  0  0  0  0  0  0  0  0
   -5.4272   21.9594    1.9064 C   0  0  0  0  0  0  0  0  0  0  0  0
   -6.2095   22.8862    1.0308 C   0  0  0  0  0  0  0  0  0  0  0  0
   -7.3876   22.6153    0.3541 C   0  0  0  0  0  0  0  0  0  0  0  0
   -7.9443   23.6223   -0.4354 C   0  0  0  0  0  0  0  0  0  0  0  0
   -7.3159   24.8714   -0.5454 C   0  0  0  0  0  0  0  0  0  0  0  0
   -6.1208   25.1305    0.1303 C   0  0  0  0  0  0  0  0  0  0  0  0
   -5.5753   24.1319    0.9215 C   0  0  0  0  0  0  0  0  0  0  0  0
 11 12  1  0  0  0
 12 13  1  0  0  0
 13 14  2  0  0  0
 14 10  1  0  0  0
 10  1  1  0  0  0
  1 17  1  0  0  0
 17 18  1  0  0  0
 18 19  1  0  0  0
 19 20  1  0  0  0
 20 21  1  0  0  0
 21 22  2  0  0  0
 22 23  1  0  0  0
 23 24  2  0  0  0
 24 25  1  0  0  0
 25 26  2  0  0  0
  1  2  1  0  0  0
  2  3  2  0  0  0
  3  4  1  0  0  0
  4  5  2  0  0  0
  5  6  1  0  0  0
  6  8  1  0  0  0
  8  9  3  0  0  0
  6  7  2  0  0  0
 14 15  1  0  0  0
 15 16  2  0  0  0
 16 12  1  0  0  0
 26 18  1  0  0  0
  7  2  1  0  0  0
 26 21  1  0  0  0
M  END
> <minimizedAffinity>
-9.61420

$$$$
OCNT-2314395


 23 26  0  0  0  0  0  0  0  0999 V2000
   -3.7153   26.3087    4.6064 N   0  0  0  0  0  0  0  0  0  0  0  0
   -4.5566   25.2219    5.1733 C   0  0  0  0  0  0  0  0  0  0  0  0
   -6.0466   25.4694    4.9195 C   0  0  0  0  0  0  0  0  0  0  0  0
   -6.3605   25.5340    3.5206 O   0  0  0  0  0  0  0  0  0  0  0  0
   -5.3945   26.2685    2.7369 C   0  0  0  0  0  0  0  0  0  0  0  0
   -4.4373   27.1249    3.5971 C   0  0  0  0  0  0  0  0  0  0  0  0
   -0.7939   26.1023    4.9313 C   0  0  0  0  0  0  0  0  0  0  0  0
   -1.6743   26.9823    5.6594 N   0  0  0  0  0  0  0  0  0  0  0  0
   -1.2898   27.8664    6.6402 C   0  0  0  0  0  0  0  0  0  0  0  0
   -0.0560   28.2367    7.1749 C   0  0  0  0  0  0  0  0  0  0  0  0
   -0.1241   29.1851    8.1876 C   0  0  0  0  0  0  0  0  0  0  0  0
   -1.2632   29.7412    8.6615 N   0  0  0  0  0  0  0  0  0  0  0  0
   -2.4514   29.3586    8.1211 C   0  0  0  0  0  0  0  0  0  0  0  0
   -2.4883   28.4108    7.0942 C   0  0  0  0  0  0  0  0  0  0  0  0
   -3.5565   27.8855    6.4074 N   0  0  0  0  0  0  0  0  0  0  0  0
   -3.0447   27.0496    5.5333 C   0  0  0  0  0  0  0  0  0  0  0  0
   -4.6189   25.2966    1.8237 C   0  0  0  0  0  0  0  0  0  0  0  0
   -5.5328   24.4139    1.0000 C   0  0  0  0  0  0  0  0  0  0  0  0
   -6.4005   24.9734    0.0518 C   0  0  0  0  0  0  0  0  0  0  0  0
   -7.2449   24.1573   -0.7034 C   0  0  0  0  0  0  0  0  0  0  0  0
   -7.2317   22.7763   -0.5179 C   0  0  0  0  0  0  0  0  0  0  0  0
   -6.3744   22.2098    0.4230 C   0  0  0  0  0  0  0  0  0  0  0  0
   -5.5289   23.0238    1.1780 C   0  0  0  0  0  0  0  0  0  0  0  0
  7  8  1  0  0  0
  8  9  1  0  0  0
  9 10  2  0  0  0
 10 11  1  0  0  0
 11 12  2  0  0  0
 12 13  1  0  0  0
 13 14  2  0  0  0
 14 15  1  0  0  0
 15 16  2  0  0  0
 16  1  1  0  0  0
  1  2  1  0  0  0
  2  3  1  0  0  0
  3  4  1  0  0  0
  4  5  1  0  0  0
  5 17  1  0  0  0
 17 18  1  0  0  0
 18 19  2  0  0  0
 19 20  1  0  0  0
 20 21  2  0  0  0
 21 22  1  0  0  0
 22 23  2  0  0  0
  5  6  1  0  0  0
 16  8  1  0  0  0
  6  1  1  0  0  0
 14  9  1  0  0  0
 23 18  1  0  0  0
M  END
> <minimizedAffinity>
-9.37004

$$$$
OCNT-2314397


 26 30  0  0  0  0  0  0  0  0999 V2000
   -2.5046   28.0951    7.1970 C   0  0  0  0  0  0  0  0  0  0  0  0
   -3.1425   28.2038    6.0512 N   0  0  0  0  0  0  0  0  0  0  0  0
   -2.9980   26.9460    5.5134 C   0  0  0  0  0  0  0  0  0  0  0  0
   -2.2712   26.1016    6.2603 N   0  0  0  0  0  0  0  0  0  0  0  0
   -1.9498   26.8603    7.3852 O   0  0  0  0  0  0  0  0  0  0  0  0
    0.1216   29.4870    7.4304 C   0  0  0  0  0  0  0  0  0  0  0  0
   -1.1627   30.1334    7.9551 C   0  0  0  0  0  0  0  0  0  0  0  0
   -1.6551   31.2483    6.9951 C   0  0  0  0  0  0  0  0  0  0  0  0
   -2.8322   32.0498    7.5812 C   0  0  0  0  0  0  0  0  0  0  0  0
   -3.8087   31.1601    8.2647 C   0  0  0  0  0  0  0  0  0  0  0  0
   -5.0123   31.5730    8.6668 N   0  0  0  0  0  0  0  0  0  0  0  0
   -5.5437   30.4823    9.2472 N   0  0  0  0  0  0  0  0  0  0  0  0
   -4.7035   29.4043    9.2574 C   0  0  0  0  0  0  0  0  0  0  0  0
   -3.5578   29.8126    8.6134 C   0  0  0  0  0  0  0  0  0  0  0  0
   -2.2841   29.0936    8.2896 C   0  0  0  0  0  0  0  0  0  0  0  0
   -6.4847   30.5482    9.6210 H   0  0  0  0  0  0  0  0  0  0  0  0
   -3.5748   26.5554    4.1916 C   0  0  0  0  0  0  0  0  0  0  0  0
   -4.9322   27.2210    3.9681 C   0  0  0  0  0  0  0  0  0  0  0  0
   -5.4085   26.9751    2.6365 O   0  0  0  0  0  0  0  0  0  0  0  0
   -5.2753   25.6525    2.2998 C   0  0  0  0  0  0  0  0  0  0  0  0
   -5.9862   25.2158    1.1837 C   0  0  0  0  0  0  0  0  0  0  0  0
   -5.9162   23.8770    0.7950 C   0  0  0  0  0  0  0  0  0  0  0  0
   -5.1337   22.9779    1.5215 C   0  0  0  0  0  0  0  0  0  0  0  0
   -4.4107   23.4183    2.6313 C   0  0  0  0  0  0  0  0  0  0  0  0
   -4.4692   24.7579    3.0110 C   0  0  0  0  0  0  0  0  0  0  0  0
   -3.7146   25.1227    4.0958 O   0  0  0  0  0  0  0  0  0  0  0  0
  6  7  1  0  0  0
  7  8  1  0  0  0
  8  9  1  0  0  0
  9 10  1  0  0  0
 10 11  2  0  0  0
 11 12  1  0  0  0
 12 13  1  0  0  0
 13 14  2  0  0  0
 14 15  1  0  0  0
 15  1  1  0  0  0
  1  2  2  0  0  0
  2  3  1  0  0  0
  3 17  1  0  0  0
 17 18  1  0  0  0
 18 19  1  0  0  0
 19 20  1  0  0  0
 20 21  2  0  0  0
 21 22  1  0  0  0
 22 23  2  0  0  0
 23 24  1  0  0  0
 24 25  2  0  0  0
 25 26  1  0  0  0
  3  4  2  0  0  0
  4  5  1  0  0  0
 15  7  1  0  0  0
  5  1  1  0  0  0
 14 10  1  0  0  0
 26 17  1  0  0  0
 25 20  1  0  0  0
 12 16  1  0  0  0
M  END
> <minimizedAffinity>
-9.97999

$$$$
OCNT-2314412


 27 30  0  0  0  0  0  0  0  0999 V2000
   -7.0949   29.5396    6.0626 S   0  0  0  0  0  0  0  0  0  0  0  0
   -6.4315   28.3196    4.9643 C   0  0  0  0  0  0  0  0  0  0  0  0
   -6.2142   27.0978    5.4757 N   0  0  0  0  0  0  0  0  0  0  0  0
   -5.7368   26.1616    4.6258 C   0  0  0  0  0  0  0  0  0  0  0  0
   -5.4854   26.3991    3.2924 C   0  0  0  0  0  0  0  0  0  0  0  0
   -5.7271   27.6902    2.8785 C   0  0  0  0  0  0  0  0  0  0  0  0
   -6.2037   28.6690    3.6823 N   0  0  0  0  0  0  0  0  0  0  0  0
   -4.9794   25.5104    2.3870 O   0  0  0  0  0  0  0  0  0  0  0  0
   -5.8709   24.8874    1.5479 C   0  0  0  0  0  0  0  0  0  0  0  0
   -6.1158   25.3676    0.2594 C   0  0  0  0  0  0  0  0  0  0  0  0
   -7.0069   24.6875   -0.5706 C   0  0  0  0  0  0  0  0  0  0  0  0
   -7.6344   23.5256   -0.1183 C   0  0  0  0  0  0  0  0  0  0  0  0
   -7.3661   23.0360    1.1610 C   0  0  0  0  0  0  0  0  0  0  0  0
   -6.4759   23.7132    1.9943 C   0  0  0  0  0  0  0  0  0  0  0  0
   -6.5322   28.8527    7.6469 C   0  0  0  0  0  0  0  0  0  0  0  0
   -0.9291   30.0290    8.9364 C   0  0  0  0  0  0  0  0  0  0  0  0
   -1.3978   31.2064    9.5192 C   0  0  0  0  0  0  0  0  0  0  0  0
   -2.7683   31.4838    9.5061 C   0  0  0  0  0  0  0  0  0  0  0  0
   -3.5983   30.5400    8.8945 C   0  0  0  0  0  0  0  0  0  0  0  0
   -4.9593   30.5050    8.7157 N   0  0  0  0  0  0  0  0  0  0  0  0
   -5.1993   29.3787    8.0646 C   0  0  0  0  0  0  0  0  0  0  0  0
   -4.0307   28.6866    7.8360 N   0  0  0  0  0  0  0  0  0  0  0  0
   -3.0004   29.4106    8.3536 C   0  0  0  0  0  0  0  0  0  0  0  0
   -1.6955   29.0851    8.3353 N   0  0  0  0  0  0  0  0  0  0  0  0
   -3.9539   27.8047    7.3461 H   0  0  0  0  0  0  0  0  0  0  0  0
    0.9758   29.1703    7.8729 C   0  0  0  0  0  0  0  0  0  0  0  0
    0.4433   29.8500    9.0044 O   0  0  0  0  0  0  0  0  0  0  0  0
 26 27  1  0  0  0
 27 16  1  0  0  0
 16 17  2  0  0  0
 17 18  1  0  0  0
 18 19  2  0  0  0
 19 20  1  0  0  0
 20 21  2  0  0  0
 21 15  1  0  0  0
 15  1  1  0  0  0
  1  2  1  0  0  0
  2  3  2  0  0  0
  3  4  1  0  0  0
  4  5  2  0  0  0
  5  8  1  0  0  0
  8  9  1  0  0  0
  9 10  2  0  0  0
 10 11  1  0  0  0
 11 12  2  0  0  0
 12 13  1  0  0  0
 13 14  2  0  0  0
  5  6  1  0  0  0
  6  7  2  0  0  0
 21 22  1  0  0  0
 22 23  1  0  0  0
 23 24  2  0  0  0
 24 16  1  0  0  0
 23 19  1  0  0  0
  7  2  1  0  0  0
 14  9  1  0  0  0
 22 25  1  0  0  0
M  END
> <minimizedAffinity>
-9.67090

$$$$
OCNT-2314426


 29 32  0  0  0  0  0  0  0  0999 V2000
   -0.4396   27.7266    6.8220 O   0  0  0  0  0  0  0  0  0  0  0  0
   -1.5094   28.2900    7.0207 C   0  0  0  0  0  0  0  0  0  0  0  0
   -2.7162   27.8391    6.5211 N   0  0  0  0  0  0  0  0  0  0  0  0
   -3.5547   28.1658    6.9847 H   0  0  0  0  0  0  0  0  0  0  0  0
   -1.5641   29.5119    7.8700 C   0  0  0  0  0  0  0  0  0  0  0  0
   -0.4570   29.9607    8.5933 C   0  0  0  0  0  0  0  0  0  0  0  0
   -0.5630   31.1137    9.3662 C   0  0  0  0  0  0  0  0  0  0  0  0
   -1.7761   31.8065    9.4285 C   0  0  0  0  0  0  0  0  0  0  0  0
   -2.9284   31.3706    8.7419 C   0  0  0  0  0  0  0  0  0  0  0  0
   -2.7793   30.2092    7.9548 C   0  0  0  0  0  0  0  0  0  0  0  0
   -4.3123   32.1679    8.8228 C   0  0  0  0  0  0  0  0  0  0  0  0
   -5.3615   31.3023    9.3481 O   0  0  0  0  0  0  0  0  0  0  0  0
   -4.2828   33.5933    9.4594 C   0  0  0  0  0  0  0  0  0  0  0  0
   -5.1085   34.1166    8.3832 O   0  0  0  0  0  0  0  0  0  0  0  0
   -4.7349   32.9798    7.5587 C   0  0  0  0  0  0  0  0  0  0  0  0
   -6.1498   31.8745    9.3826 H   0  0  0  0  0  0  0  0  0  0  0  0
   -2.7965   26.5692    5.8235 C   0  0  0  0  0  0  0  0  0  0  0  0
   -3.4593   26.7221    4.4638 C   0  0  0  0  0  0  0  0  0  0  0  0
   -4.6405   27.6880    4.4771 C   0  0  0  0  0  0  0  0  0  0  0  0
   -5.3987   27.3209    3.2027 C   0  0  0  0  0  0  0  0  0  0  0  0
   -5.1380   25.8926    3.0353 N   0  0  0  0  0  0  0  0  0  0  0  0
   -4.1044   25.4261    3.9597 C   0  0  0  0  0  0  0  0  0  0  0  0
   -5.8409   25.0744    2.1833 C   0  0  0  0  0  0  0  0  0  0  0  0
   -6.4496   23.8884    2.6278 C   0  0  0  0  0  0  0  0  0  0  0  0
   -7.1639   23.0483    1.7631 C   0  0  0  0  0  0  0  0  0  0  0  0
   -7.2822   23.3808    0.4208 C   0  0  0  0  0  0  0  0  0  0  0  0
   -8.1546   22.3540   -0.6474 Cl  0  0  0  0  0  0  0  0  0  0  0  0
   -6.6931   24.5427   -0.0580 C   0  0  0  0  0  0  0  0  0  0  0  0
   -5.9825   25.3744    0.8179 C   0  0  0  0  0  0  0  0  0  0  0  0
  1  2  2  0  0  0
  2  3  1  0  0  0
  3 17  1  0  0  0
 17 18  1  0  0  0
 18 19  1  0  0  0
 19 20  1  0  0  0
 20 21  1  0  0  0
 21 23  1  0  0  0
 23 24  1  0  0  0
 24 25  2  0  0  0
 25 26  1  0  0  0
 26 27  1  0  0  0
 26 28  2  0  0  0
 28 29  1  0  0  0
 21 22  1  0  0  0
  2  5  1  0  0  0
  5  6  1  0  0  0
  6  7  2  0  0  0
  7  8  1  0  0  0
  8  9  2  0  0  0
  9 11  1  0  0  0
 11 12  1  0  0  0
 11 13  1  0  0  0
 13 14  1  0  0  0
 14 15  1  0  0  0
  9 10  1  0  0  0
 22 18  1  0  0  0
 10  5  2  0  0  0
 29 23  2  0  0  0
 15 11  1  0  0  0
  3  4  1  0  0  0
 12 16  1  0  0  0
M  END
> <minimizedAffinity>
-9.60794

$$$$
OCNT-2314434


 28 31  0  0  0  0  0  0  0  0999 V2000
   -2.1746   26.2108    6.7453 O   0  0  0  0  0  0  0  0  0  0  0  0
   -1.5082   27.2220    6.5246 C   0  0  0  0  0  0  0  0  0  0  0  0
   -1.7523   28.4305    7.1847 N   0  0  0  0  0  0  0  0  0  0  0  0
   -0.8038   29.5471    7.1725 C   0  0  0  0  0  0  0  0  0  0  0  0
   -1.4696   30.8949    7.4959 C   0  0  0  0  0  0  0  0  0  0  0  0
   -2.4461   31.2955    6.3699 C   0  0  0  0  0  0  0  0  0  0  0  0
   -3.9122   31.3306    6.8025 C   0  0  0  0  0  0  0  0  0  0  0  0
   -4.2919   30.2021    7.6520 N   0  0  0  0  0  0  0  0  0  0  0  0
   -5.5533   29.6189    7.6899 C   0  0  0  0  0  0  0  0  0  0  0  0
   -5.8392   28.7471    8.5150 O   0  0  0  0  0  0  0  0  0  0  0  0
   -3.3154   29.7588    8.6712 C   0  0  0  0  0  0  0  0  0  0  0  0
   -2.1915   30.7836    8.8374 C   0  0  0  0  0  0  0  0  0  0  0  0
   -2.7009   28.3834    8.3119 C   0  0  0  0  0  0  0  0  0  0  0  0
   -0.4032   27.2245    5.4767 C   0  0  0  0  0  0  0  0  0  0  0  0
   -0.4075   25.9757    4.5932 C   0  0  0  0  0  0  0  0  0  0  0  0
    0.8683   25.7906    3.8412 C   0  0  0  0  0  0  0  0  0  0  0  0
    1.4403   26.6323    2.9099 C   0  0  0  0  0  0  0  0  0  0  0  0
    2.5922   26.0268    2.5007 N   0  0  0  0  0  0  0  0  0  0  0  0
    2.8220   24.8530    3.1064 N   0  0  0  0  0  0  0  0  0  0  0  0
    1.7712   24.7039    3.9171 C   0  0  0  0  0  0  0  0  0  0  0  0
    3.2671   26.3543    1.8180 H   0  0  0  0  0  0  0  0  0  0  0  0
   -6.6111   30.0808    6.7019 C   0  0  0  0  0  0  0  0  0  0  0  0
   -6.7260   29.1711    5.4692 C   0  0  0  0  0  0  0  0  0  0  0  0
   -6.1236   27.7810    5.7388 C   0  0  0  0  0  0  0  0  0  0  0  0
   -6.1648   26.8941    4.4963 C   0  0  0  0  0  0  0  0  0  0  0  0
   -5.4860   27.5611    3.3050 C   0  0  0  0  0  0  0  0  0  0  0  0
   -6.0749   28.9398    3.0261 C   0  0  0  0  0  0  0  0  0  0  0  0
   -6.0338   29.8306    4.2653 C   0  0  0  0  0  0  0  0  0  0  0  0
  1  2  2  0  0  0
  2 14  1  0  0  0
 14 15  1  0  0  0
 15 16  1  0  0  0
 16 17  2  0  0  0
 17 18  1  0  0  0
 18 19  1  0  0  0
 19 20  2  0  0  0
  2  3  1  0  0  0
  3  4  1  0  0  0
  4  5  1  0  0  0
  5  6  1  0  0  0
  6  7  1  0  0  0
  7  8  1  0  0  0
  8  9  1  0  0  0
  9 10  2  0  0  0
  9 22  1  0  0  0
 22 23  1  0  0  0
 23 24  1  0  0  0
 24 25  1  0  0  0
 25 26  1  0  0  0
 26 27  1  0  0  0
 27 28  1  0  0  0
  8 11  1  0  0  0
 11 12  1  0  0  0
 11 13  1  0  0  0
 20 16  1  0  0  0
 13  3  1  0  0  0
 12  5  1  0  0  0
 28 23  1  0  0  0
 18 21  1  0  0  0
M  END
> <minimizedAffinity>
-9.80819

$$$$
OCNT-2314445


 25 27  0  0  0  0  0  0  0  0999 V2000
   -5.0194   26.9907    4.7009 N   0  0  0  0  0  0  0  0  0  0  0  0
   -5.6103   25.7540    4.7410 C   0  0  0  0  0  0  0  0  0  0  0  0
   -6.5934   25.4638    5.4176 O   0  0  0  0  0  0  0  0  0  0  0  0
   -4.9921   24.7994    3.9100 N   0  0  0  0  0  0  0  0  0  0  0  0
   -3.6224   24.9345    3.4071 C   0  0  0  0  0  0  0  0  0  0  0  0
   -3.5315   25.5617    2.0120 C   0  0  0  0  0  0  0  0  0  0  0  0
   -3.8249   24.6012    0.8552 C   0  0  0  0  0  0  0  0  0  0  0  0
   -5.2985   24.3676    0.6054 C   0  0  0  0  0  0  0  0  0  0  0  0
   -5.9260   25.0818   -0.4336 C   0  0  0  0  0  0  0  0  0  0  0  0
   -7.2858   24.9179   -0.7034 C   0  0  0  0  0  0  0  0  0  0  0  0
   -8.0422   24.0412    0.0642 C   0  0  0  0  0  0  0  0  0  0  0  0
   -7.4389   23.3286    1.1011 C   0  0  0  0  0  0  0  0  0  0  0  0
   -6.0674   23.4771    1.3811 C   0  0  0  0  0  0  0  0  0  0  0  0
   -5.4820   22.7101    2.5458 C   0  0  0  0  0  0  0  0  0  0  0  0
   -5.6094   23.4676    3.8719 C   0  0  0  0  0  0  0  0  0  0  0  0
   -4.4609   27.2204    3.8991 H   0  0  0  0  0  0  0  0  0  0  0  0
   -4.3442   28.4956    6.4299 C   0  0  0  0  0  0  0  0  0  0  0  0
   -4.6321   29.5692    7.2713 C   0  0  0  0  0  0  0  0  0  0  0  0
   -5.8657   30.2111    7.1653 C   0  0  0  0  0  0  0  0  0  0  0  0
   -6.7817   29.7563    6.2249 C   0  0  0  0  0  0  0  0  0  0  0  0
   -8.1141   30.4286    6.0747 C   0  0  0  0  0  0  0  0  0  0  0  0
   -6.5275   28.7062    5.4147 N   0  0  0  0  0  0  0  0  0  0  0  0
   -5.3285   28.0954    5.5100 C   0  0  0  0  0  0  0  0  0  0  0  0
   -2.3100   27.9499    7.5450 C   0  0  0  0  0  0  0  0  0  0  0  0
   -3.1664   27.7866    6.4214 O   0  0  0  0  0  0  0  0  0  0  0  0
 24 25  1  0  0  0
 25 17  1  0  0  0
 17 18  2  0  0  0
 18 19  1  0  0  0
 19 20  2  0  0  0
 20 21  1  0  0  0
 20 22  1  0  0  0
 22 23  2  0  0  0
 23  1  1  0  0  0
  1  2  1  0  0  0
  2  3  2  0  0  0
  2  4  1  0  0  0
  4  5  1  0  0  0
  5  6  1  0  0  0
  6  7  1  0  0  0
  7  8  1  0  0  0
  8  9  2  0  0  0
  9 10  1  0  0  0
 10 11  2  0  0  0
 11 12  1  0  0  0
 12 13  2  0  0  0
 13 14  1  0  0  0
 14 15  1  0  0  0
 23 17  1  0  0  0
 15  4  1  0  0  0
 13  8  1  0  0  0
  1 16  1  0  0  0
M  END
> <minimizedAffinity>
-7.97821

$$$$
OCNT-2314459


 23 24  0  0  0  0  0  0  0  0999 V2000
   -5.3758   33.0067    8.0652 C   0  0  0  0  0  0  0  0  0  0  0  0
   -4.4094   31.8960    7.8668 C   0  0  0  0  0  0  0  0  0  0  0  0
   -3.2395   32.1415    7.2611 N   0  0  0  0  0  0  0  0  0  0  0  0
   -2.6198   30.9509    7.2197 N   0  0  0  0  0  0  0  0  0  0  0  0
   -1.3155   30.8712    6.6001 C   0  0  0  0  0  0  0  0  0  0  0  0
   -3.3487   29.9321    7.7789 C   0  0  0  0  0  0  0  0  0  0  0  0
   -4.5206   30.5336    8.2252 C   0  0  0  0  0  0  0  0  0  0  0  0
   -5.8664   29.7848    8.9914 S   0  0  0  0  0  0  0  0  0  0  0  0
   -5.2782   28.5980   10.0137 N   0  0  0  0  0  0  0  0  0  0  0  0
   -6.6176   29.1224    7.9540 O   0  0  0  0  0  0  0  0  0  0  0  0
   -6.4424   30.8182    9.8191 O   0  0  0  0  0  0  0  0  0  0  0  0
   -5.0285   28.9779   10.9340 H   0  0  0  0  0  0  0  0  0  0  0  0
   -5.9435   27.8278   10.0868 H   0  0  0  0  0  0  0  0  0  0  0  0
   -2.8808   28.5151    7.8313 C   0  0  0  0  0  0  0  0  0  0  0  0
   -3.1480   27.8286    6.5770 N   0  0  0  0  0  0  0  0  0  0  0  0
   -2.2893   26.9856    5.9339 C   0  0  0  0  0  0  0  0  0  0  0  0
   -2.8651   26.4244    4.8963 N   0  0  0  0  0  0  0  0  0  0  0  0
   -4.1236   26.9847    4.8084 C   0  0  0  0  0  0  0  0  0  0  0  0
   -4.3037   27.8792    5.8450 C   0  0  0  0  0  0  0  0  0  0  0  0
   -5.0598   26.5834    3.6890 C   0  0  0  0  0  0  0  0  0  0  0  0
   -4.2434   26.0209    2.5100 C   0  0  0  0  0  0  0  0  0  0  0  0
   -6.0376   25.4990    4.1849 C   0  0  0  0  0  0  0  0  0  0  0  0
   -5.8913   27.7776    3.1793 C   0  0  0  0  0  0  0  0  0  0  0  0
  1  2  1  0  0  0
  2  3  2  0  0  0
  3  4  1  0  0  0
  4  5  1  0  0  0
  4  6  1  0  0  0
  6 14  1  0  0  0
 14 15  1  0  0  0
 15 16  1  0  0  0
 16 17  2  0  0  0
 17 18  1  0  0  0
 18 20  1  0  0  0
 20 21  1  0  0  0
 20 22  1  0  0  0
 20 23  1  0  0  0
 18 19  2  0  0  0
  6  7  2  0  0  0
  7  8  1  0  0  0
  8  9  1  0  0  0
  8 10  2  0  0  0
  8 11  2  0  0  0
  7  2  1  0  0  0
 19 15  1  0  0  0
  9 12  1  0  0  0
  9 13  1  0  0  0
M  END
> <minimizedAffinity>
-7.43449

$$$$
OCNT-2314462


 23 25  0  0  0  0  0  0  0  0999 V2000
   -4.5345   25.5823    1.8995 N   0  0  0  0  0  0  0  0  0  0  0  0
   -3.5313   25.4212    1.8852 H   0  0  0  0  0  0  0  0  0  0  0  0
   -5.3814   24.6897    1.1914 C   0  0  0  0  0  0  0  0  0  0  0  0
   -6.1753   25.1527    0.1381 C   0  0  0  0  0  0  0  0  0  0  0  0
   -7.0510   24.2985   -0.5281 C   0  0  0  0  0  0  0  0  0  0  0  0
   -7.1639   22.9570   -0.1481 C   0  0  0  0  0  0  0  0  0  0  0  0
   -6.3862   22.4724    0.9216 C   0  0  0  0  0  0  0  0  0  0  0  0
   -5.5105   23.3462    1.5710 C   0  0  0  0  0  0  0  0  0  0  0  0
   -4.9047   22.6260    2.5780 N   0  0  0  0  0  0  0  0  0  0  0  0
   -5.3538   21.3328    2.5773 C   0  0  0  0  0  0  0  0  0  0  0  0
   -6.2711   21.2071    1.5603 C   0  0  0  0  0  0  0  0  0  0  0  0
   -4.2355   23.0043    3.2327 H   0  0  0  0  0  0  0  0  0  0  0  0
   -5.0838   26.2746    3.3358 S   0  0  0  0  0  0  0  0  0  0  0  0
   -5.5624   27.5945    2.9797 O   0  0  0  0  0  0  0  0  0  0  0  0
   -5.9279   25.3350    4.0404 O   0  0  0  0  0  0  0  0  0  0  0  0
    0.0758   25.4949    4.0558 C   0  0  0  0  0  0  0  0  0  0  0  0
   -1.2183   26.0666    4.5560 C   0  0  0  0  0  0  0  0  0  0  0  0
   -2.3941   25.9236    3.8094 C   0  0  0  0  0  0  0  0  0  0  0  0
   -3.5885   26.4879    4.2747 C   0  0  0  0  0  0  0  0  0  0  0  0
   -3.6188   27.2350    5.4544 C   0  0  0  0  0  0  0  0  0  0  0  0
   -2.4469   27.3799    6.1889 C   0  0  0  0  0  0  0  0  0  0  0  0
   -2.4716   28.3625    7.8035 Br  0  0  0  0  0  0  0  0  0  0  0  0
   -1.2527   26.8052    5.7474 C   0  0  0  0  0  0  0  0  0  0  0  0
 16 17  1  0  0  0
 17 18  2  0  0  0
 18 19  1  0  0  0
 19 13  1  0  0  0
 13 14  2  0  0  0
 13 15  2  0  0  0
 13  1  1  0  0  0
  1  3  1  0  0  0
  3  4  1  0  0  0
  4  5  2  0  0  0
  5  6  1  0  0  0
  6  7  2  0  0  0
  7  8  1  0  0  0
  8  9  1  0  0  0
  9 10  1  0  0  0
 10 11  2  0  0  0
 19 20  2  0  0  0
 20 21  1  0  0  0
 21 22  1  0  0  0
 21 23  2  0  0  0
 23 17  1  0  0  0
  8  3  2  0  0  0
 11  7  1  0  0  0
  1  2  1  0  0  0
  9 12  1  0  0  0
M  END
> <minimizedAffinity>
-9.38768

$$$$
OCNT-2314467


 24 26  0  0  0  0  0  0  0  0999 V2000
   -5.8630   27.6875    3.2345 C   0  0  0  0  0  0  0  0  0  0  0  0
   -4.6503   27.0515    3.8110 C   0  0  0  0  0  0  0  0  0  0  0  0
   -3.7990   26.1492    3.1946 C   0  0  0  0  0  0  0  0  0  0  0  0
   -2.5193   25.7497    4.2695 S   0  0  0  0  0  0  0  0  0  0  0  0
   -3.2100   26.7563    5.4794 C   0  0  0  0  0  0  0  0  0  0  0  0
   -4.3080   27.3756    5.1142 N   0  0  0  0  0  0  0  0  0  0  0  0
   -2.6206   26.8519    6.6928 N   0  0  0  0  0  0  0  0  0  0  0  0
   -3.2335   27.1304    7.4497 H   0  0  0  0  0  0  0  0  0  0  0  0
   -1.2929   27.4373    6.7782 C   0  0  0  0  0  0  0  0  0  0  0  0
   -1.1627   28.6108    7.6914 C   0  0  0  0  0  0  0  0  0  0  0  0
   -2.1724   29.3588    8.2660 C   0  0  0  0  0  0  0  0  0  0  0  0
   -1.5631   30.3209    9.0138 N   0  0  0  0  0  0  0  0  0  0  0  0
   -2.2069   31.3592    9.7819 C   0  0  0  0  0  0  0  0  0  0  0  0
   -0.2187   30.2511    8.9814 N   0  0  0  0  0  0  0  0  0  0  0  0
    0.0216   29.2210    8.1661 C   0  0  0  0  0  0  0  0  0  0  0  0
   -3.8472   25.5667    1.8125 C   0  0  0  0  0  0  0  0  0  0  0  0
   -4.8454   24.4449    1.6749 C   0  0  0  0  0  0  0  0  0  0  0  0
   -6.0661   24.6414    1.0239 C   0  0  0  0  0  0  0  0  0  0  0  0
   -6.3442   25.8317    0.4727 F   0  0  0  0  0  0  0  0  0  0  0  0
   -7.0144   23.6235    0.9250 C   0  0  0  0  0  0  0  0  0  0  0  0
   -6.7497   22.3744    1.4837 C   0  0  0  0  0  0  0  0  0  0  0  0
   -5.5333   22.1543    2.1314 C   0  0  0  0  0  0  0  0  0  0  0  0
   -4.5966   23.1833    2.2202 C   0  0  0  0  0  0  0  0  0  0  0  0
   -3.4345   22.9423    2.8443 F   0  0  0  0  0  0  0  0  0  0  0  0
  1  2  1  0  0  0
  2  3  2  0  0  0
  3 16  1  0  0  0
 16 17  1  0  0  0
 17 18  2  0  0  0
 18 19  1  0  0  0
 18 20  1  0  0  0
 20 21  2  0  0  0
 21 22  1  0  0  0
 22 23  2  0  0  0
 23 24  1  0  0  0
  3  4  1  0  0  0
  4  5  1  0  0  0
  5  7  1  0  0  0
  7  9  1  0  0  0
  9 10  1  0  0  0
 10 11  2  0  0  0
 11 12  1  0  0  0
 12 13  1  0  0  0
 12 14  1  0  0  0
 14 15  2  0  0  0
  5  6  2  0  0  0
  6  2  1  0  0  0
 23 17  1  0  0  0
 15 10  1  0  0  0
  7  8  1  0  0  0
M  END
> <minimizedAffinity>
-8.72639

$$$$
OCNT-2314468


 27 31  0  0  0  0  0  0  0  0999 V2000
    1.7956   29.3432    8.4533 F   0  0  0  0  0  0  0  0  0  0  0  0
    0.4620   29.3523    8.3207 C   0  0  0  0  0  0  0  0  0  0  0  0
   -0.1397   28.4317    7.4753 C   0  0  0  0  0  0  0  0  0  0  0  0
   -1.5312   28.4220    7.3193 C   0  0  0  0  0  0  0  0  0  0  0  0
   -2.3237   29.3525    8.0306 C   0  0  0  0  0  0  0  0  0  0  0  0
   -1.6713   30.2670    8.8678 C   0  0  0  0  0  0  0  0  0  0  0  0
   -0.2812   30.2898    9.0341 C   0  0  0  0  0  0  0  0  0  0  0  0
   -2.6407   31.0638    9.4284 N   0  0  0  0  0  0  0  0  0  0  0  0
   -3.8765   30.6955    8.9836 C   0  0  0  0  0  0  0  0  0  0  0  0
   -5.0148   31.3001    9.3506 N   0  0  0  0  0  0  0  0  0  0  0  0
   -6.0760   30.7367    8.7556 C   0  0  0  0  0  0  0  0  0  0  0  0
   -6.0925   29.6936    7.9055 N   0  0  0  0  0  0  0  0  0  0  0  0
   -4.9205   29.0990    7.5650 C   0  0  0  0  0  0  0  0  0  0  0  0
   -3.7328   29.6230    8.1169 C   0  0  0  0  0  0  0  0  0  0  0  0
   -2.4820   31.8231   10.0729 H   0  0  0  0  0  0  0  0  0  0  0  0
   -4.9258   28.0199    6.6905 N   0  0  0  0  0  0  0  0  0  0  0  0
   -4.9351   27.1172    7.1639 H   0  0  0  0  0  0  0  0  0  0  0  0
   -5.7665   28.0937    5.5037 C   0  0  0  0  0  0  0  0  0  0  0  0
   -5.4742   29.3521    4.6860 C   0  0  0  0  0  0  0  0  0  0  0  0
   -5.9542   29.0331    3.2714 C   0  0  0  0  0  0  0  0  0  0  0  0
   -6.1327   27.5144    3.2009 C   0  0  0  0  0  0  0  0  0  0  0  0
   -5.5228   26.9548    4.4921 C   0  0  0  0  0  0  0  0  0  0  0  0
   -4.1322   26.5378    4.3866 N   0  0  0  0  0  0  0  0  0  0  0  0
   -3.3239   26.4877    3.2857 C   0  0  0  0  0  0  0  0  0  0  0  0
   -2.1071   26.0156    3.7175 C   0  0  0  0  0  0  0  0  0  0  0  0
   -2.2719   25.8142    5.0970 C   0  0  0  0  0  0  0  0  0  0  0  0
   -3.4963   26.1410    5.5164 N   0  0  0  0  0  0  0  0  0  0  0  0
  1  2  1  0  0  0
  2  3  2  0  0  0
  3  4  1  0  0  0
  4  5  2  0  0  0
  5  6  1  0  0  0
  6  7  2  0  0  0
  6  8  1  0  0  0
  8  9  1  0  0  0
  9 10  2  0  0  0
 10 11  1  0  0  0
 11 12  2  0  0  0
 12 13  1  0  0  0
 13 16  1  0  0  0
 16 18  1  0  0  0
 18 19  1  0  0  0
 19 20  1  0  0  0
 20 21  1  0  0  0
 21 22  1  0  0  0
 22 23  1  0  0  0
 23 24  1  0  0  0
 24 25  2  0  0  0
 25 26  1  0  0  0
 26 27  2  0  0  0
 13 14  2  0  0  0
  7  2  1  0  0  0
 14  9  1  0  0  0
 14  5  1  0  0  0
 22 18  1  0  0  0
 27 23  1  0  0  0
  8 15  1  0  0  0
 16 17  1  0  0  0
M  END
> <minimizedAffinity>
-9.61789

$$$$
OCNT-2314473


 24 27  0  0  0  0  0  0  0  0999 V2000
   -4.7163   24.4442    2.3491 N   0  0  0  0  0  0  0  0  0  0  0  0
   -5.0701   24.1322    3.7356 C   0  0  0  0  0  0  0  0  0  0  0  0
   -5.9767   25.1843    4.3714 C   0  0  0  0  0  0  0  0  0  0  0  0
   -5.5490   26.6186    4.0845 C   0  0  0  0  0  0  0  0  0  0  0  0
   -4.1234   26.8166    4.2897 N   0  0  0  0  0  0  0  0  0  0  0  0
   -3.1655   26.2438    3.3157 C   0  0  0  0  0  0  0  0  0  0  0  0
   -3.7946   25.5678    2.0729 C   0  0  0  0  0  0  0  0  0  0  0  0
   -3.5629   27.2598    5.4842 C   0  0  0  0  0  0  0  0  0  0  0  0
   -2.5224   26.5236    5.9845 N   0  0  0  0  0  0  0  0  0  0  0  0
   -1.9060   26.8939    7.1199 C   0  0  0  0  0  0  0  0  0  0  0  0
   -2.1812   27.9460    7.8959 N   0  0  0  0  0  0  0  0  0  0  0  0
   -3.2085   28.6501    7.4050 C   0  0  0  0  0  0  0  0  0  0  0  0
   -3.9417   28.3976    6.2485 C   0  0  0  0  0  0  0  0  0  0  0  0
   -4.9310   29.4316    6.2040 C   0  0  0  0  0  0  0  0  0  0  0  0
   -4.7568   30.2598    7.2933 C   0  0  0  0  0  0  0  0  0  0  0  0
   -3.7016   29.7718    8.0110 N   0  0  0  0  0  0  0  0  0  0  0  0
   -3.3275   30.1534    8.8675 H   0  0  0  0  0  0  0  0  0  0  0  0
   -5.4057   21.7065    1.8015 F   0  0  0  0  0  0  0  0  0  0  0  0
   -5.9442   22.7141    1.0958 C   0  0  0  0  0  0  0  0  0  0  0  0
   -6.8569   22.3805    0.0974 C   0  0  0  0  0  0  0  0  0  0  0  0
   -7.4503   23.3903   -0.6421 C   0  0  0  0  0  0  0  0  0  0  0  0
   -7.1004   24.6920   -0.3419 C   0  0  0  0  0  0  0  0  0  0  0  0
   -6.2144   25.0345    0.6226 N   0  0  0  0  0  0  0  0  0  0  0  0
   -5.6176   24.0572    1.3538 C   0  0  0  0  0  0  0  0  0  0  0  0
 18 19  1  0  0  0
 19 20  1  0  0  0
 20 21  2  0  0  0
 21 22  1  0  0  0
 22 23  2  0  0  0
 23 24  1  0  0  0
 24  1  1  0  0  0
  1  2  1  0  0  0
  2  3  1  0  0  0
  3  4  1  0  0  0
  4  5  1  0  0  0
  5  8  1  0  0  0
  8  9  1  0  0  0
  9 10  2  0  0  0
 10 11  1  0  0  0
 11 12  2  0  0  0
 12 13  1  0  0  0
 13 14  1  0  0  0
 14 15  2  0  0  0
 15 16  1  0  0  0
  5  6  1  0  0  0
  6  7  1  0  0  0
 24 19  2  0  0  0
  7  1  1  0  0  0
 13  8  2  0  0  0
 16 12  1  0  0  0
 16 17  1  0  0  0
M  END
> <minimizedAffinity>
-8.95501

$$$$
OCNT-2314478


 33 36  0  0  0  0  0  0  0  0999 V2000
   -2.1820   28.6070    6.0748 N   0  0  0  0  0  0  0  0  0  0  0  0
   -2.1174   27.2413    6.3397 C   0  0  0  0  0  0  0  0  0  0  0  0
   -2.0270   26.7494    7.4598 O   0  0  0  0  0  0  0  0  0  0  0  0
   -1.7654   28.8997    5.1985 H   0  0  0  0  0  0  0  0  0  0  0  0
   -1.3014   32.1042    9.6245 C   0  0  0  0  0  0  0  0  0  0  0  0
   -1.9632   31.1878    8.6497 C   0  0  0  0  0  0  0  0  0  0  0  0
   -3.3041   31.2061    8.2851 C   0  0  0  0  0  0  0  0  0  0  0  0
   -4.3834   32.0966    8.8106 C   0  0  0  0  0  0  0  0  0  0  0  0
   -3.5266   30.1520    7.4035 N   0  0  0  0  0  0  0  0  0  0  0  0
   -2.2971   29.5597    7.0924 C   0  0  0  0  0  0  0  0  0  0  0  0
   -1.3507   30.1113    7.9429 C   0  0  0  0  0  0  0  0  0  0  0  0
   -4.7877   29.7433    6.8816 C   0  0  0  0  0  0  0  0  0  0  0  0
   -5.6649   29.0110    7.6940 C   0  0  0  0  0  0  0  0  0  0  0  0
   -6.9000   28.6021    7.1900 C   0  0  0  0  0  0  0  0  0  0  0  0
   -7.2593   28.9202    5.8812 C   0  0  0  0  0  0  0  0  0  0  0  0
   -6.3873   29.6501    5.0734 C   0  0  0  0  0  0  0  0  0  0  0  0
   -5.1507   30.0658    5.5709 C   0  0  0  0  0  0  0  0  0  0  0  0
   -0.0031   29.6529    8.1387 C   0  0  0  0  0  0  0  0  0  0  0  0
    1.0481   29.1844    8.2917 N   0  0  0  0  0  0  0  0  0  0  0  0
   -2.1029   26.4071    5.0444 C   0  0  0  0  0  0  0  0  0  0  0  0
   -3.4605   26.1322    4.5366 N   0  0  0  0  0  0  0  0  0  0  0  0
   -3.4445   25.7179    3.1165 C   0  0  0  0  0  0  0  0  0  0  0  0
   -4.8580   25.4174    2.5839 C   0  0  0  0  0  0  0  0  0  0  0  0
   -5.5665   24.4425    3.4235 N   0  0  0  0  0  0  0  0  0  0  0  0
   -6.6897   23.7413    2.9585 C   0  0  0  0  0  0  0  0  0  0  0  0
   -7.6203   23.4759    3.7224 O   0  0  0  0  0  0  0  0  0  0  0  0
   -5.5422   24.7741    4.8477 C   0  0  0  0  0  0  0  0  0  0  0  0
   -4.1212   25.0910    5.3471 C   0  0  0  0  0  0  0  0  0  0  0  0
   -6.7238   23.3074    1.5715 C   0  0  0  0  0  0  0  0  0  0  0  0
   -7.5694   23.6822    0.5419 C   0  0  0  0  0  0  0  0  0  0  0  0
   -7.2114   22.9115   -0.5902 C   0  0  0  0  0  0  0  0  0  0  0  0
   -6.1883   22.0917   -0.1813 C   0  0  0  0  0  0  0  0  0  0  0  0
   -5.8961   22.3093    1.1262 O   0  0  0  0  0  0  0  0  0  0  0  0
  5  6  1  0  0  0
  6  7  2  0  0  0
  7  8  1  0  0  0
  7  9  1  0  0  0
  9 12  1  0  0  0
 12 13  2  0  0  0
 13 14  1  0  0  0
 14 15  2  0  0  0
 15 16  1  0  0  0
 16 17  2  0  0  0
  9 10  1  0  0  0
 10  1  1  0  0  0
  1  2  1  0  0  0
  2  3  2  0  0  0
  2 20  1  0  0  0
 20 21  1  0  0  0
 21 22  1  0  0  0
 22 23  1  0  0  0
 23 24  1  0  0  0
 24 25  1  0  0  0
 25 26  2  0  0  0
 25 29  1  0  0  0
 29 30  2  0  0  0
 30 31  1  0  0  0
 31 32  2  0  0  0
 32 33  1  0  0  0
 24 27  1  0  0  0
 27 28  1  0  0  0
 10 11  2  0  0  0
 11 18  1  0  0  0
 18 19  3  0  0  0
 11  6  1  0  0  0
 17 12  1  0  0  0
 28 21  1  0  0  0
 33 29  1  0  0  0
  1  4  1  0  0  0
M  END
> <minimizedAffinity>
-9.72726

$$$$
OCNT-2314480


 26 29  0  0  0  0  0  0  0  0999 V2000
   -4.4292   26.6654    5.7282 C   0  0  0  0  0  0  0  0  0  0  0  0
   -3.9969   28.0788    5.7054 N   0  0  0  0  0  0  0  0  0  0  0  0
   -5.0893   29.0030    6.0690 C   0  0  0  0  0  0  0  0  0  0  0  0
   -4.6200   30.3512    6.6534 C   0  0  0  0  0  0  0  0  0  0  0  0
   -3.7677   30.1810    7.8380 N   0  0  0  0  0  0  0  0  0  0  0  0
   -3.3688   31.2040    8.7206 C   0  0  0  0  0  0  0  0  0  0  0  0
   -2.4920   30.9818    9.5630 O   0  0  0  0  0  0  0  0  0  0  0  0
   -3.0883   28.8825    7.9282 C   0  0  0  0  0  0  0  0  0  0  0  0
   -2.8006   28.2858    6.5427 C   0  0  0  0  0  0  0  0  0  0  0  0
   -3.9660   32.5316    8.6421 C   0  0  0  0  0  0  0  0  0  0  0  0
   -4.2377   33.4446    9.6609 C   0  0  0  0  0  0  0  0  0  0  0  0
   -4.8869   34.5474    9.0762 C   0  0  0  0  0  0  0  0  0  0  0  0
   -4.9843   34.2510    7.7366 C   0  0  0  0  0  0  0  0  0  0  0  0
   -4.4387   33.0376    7.4668 O   0  0  0  0  0  0  0  0  0  0  0  0
   -1.8039   25.9557    3.7264 C   0  0  0  0  0  0  0  0  0  0  0  0
   -3.2669   25.7836    3.5797 C   0  0  0  0  0  0  0  0  0  0  0  0
   -4.3730   26.0417    4.3705 C   0  0  0  0  0  0  0  0  0  0  0  0
   -5.5230   25.6524    3.6977 N   0  0  0  0  0  0  0  0  0  0  0  0
   -5.0848   25.1665    2.5533 C   0  0  0  0  0  0  0  0  0  0  0  0
   -3.7151   25.2192    2.4162 O   0  0  0  0  0  0  0  0  0  0  0  0
   -5.8451   24.6012    1.4384 C   0  0  0  0  0  0  0  0  0  0  0  0
   -6.2466   25.3830    0.3433 C   0  0  0  0  0  0  0  0  0  0  0  0
   -6.9851   24.8265   -0.7024 C   0  0  0  0  0  0  0  0  0  0  0  0
   -7.3285   23.4791   -0.6676 C   0  0  0  0  0  0  0  0  0  0  0  0
   -6.9349   22.6844    0.4097 C   0  0  0  0  0  0  0  0  0  0  0  0
   -6.1994   23.2423    1.4559 C   0  0  0  0  0  0  0  0  0  0  0  0
 15 16  1  0  0  0
 16 17  2  0  0  0
 17  1  1  0  0  0
  1  2  1  0  0  0
  2  3  1  0  0  0
  3  4  1  0  0  0
  4  5  1  0  0  0
  5  6  1  0  0  0
  6  7  2  0  0  0
  6 10  1  0  0  0
 10 11  2  0  0  0
 11 12  1  0  0  0
 12 13  2  0  0  0
 13 14  1  0  0  0
  5  8  1  0  0  0
  8  9  1  0  0  0
 17 18  1  0  0  0
 18 19  2  0  0  0
 19 21  1  0  0  0
 21 22  2  0  0  0
 22 23  1  0  0  0
 23 24  2  0  0  0
 24 25  1  0  0  0
 25 26  2  0  0  0
 19 20  1  0  0  0
 20 16  1  0  0  0
  9  2  1  0  0  0
 26 21  1  0  0  0
 14 10  1  0  0  0
M  END
> <minimizedAffinity>
-9.87779

$$$$
OCNT-2314484


 31 33  0  0  0  0  0  0  0  0999 V2000
   -4.7242   25.5991    3.2584 C   0  0  0  0  0  0  0  0  0  0  0  0
   -5.7874   26.5036    3.2564 C   0  0  0  0  0  0  0  0  0  0  0  0
   -5.8100   27.5382    4.1936 C   0  0  0  0  0  0  0  0  0  0  0  0
   -4.7692   27.6823    5.1230 C   0  0  0  0  0  0  0  0  0  0  0  0
   -4.9392   28.9646    6.2695 Cl  0  0  0  0  0  0  0  0  0  0  0  0
   -3.6854   26.7898    5.1048 C   0  0  0  0  0  0  0  0  0  0  0  0
   -3.6698   25.7451    4.1635 C   0  0  0  0  0  0  0  0  0  0  0  0
   -2.5252   26.8431    6.0354 C   0  0  0  0  0  0  0  0  0  0  0  0
   -2.3353   25.9170    6.8158 O   0  0  0  0  0  0  0  0  0  0  0  0
   -1.6825   27.9196    5.9206 N   0  0  0  0  0  0  0  0  0  0  0  0
   -1.8169   28.5659    5.1458 H   0  0  0  0  0  0  0  0  0  0  0  0
   -0.3894   27.9785    6.5789 C   0  0  0  0  0  0  0  0  0  0  0  0
    0.1369   29.4132    6.6718 C   0  0  0  0  0  0  0  0  0  0  0  0
   -0.8975   30.3253    7.2692 C   0  0  0  0  0  0  0  0  0  0  0  0
   -1.8989   30.8425    6.5875 N   0  0  0  0  0  0  0  0  0  0  0  0
   -2.6911   31.6140    7.4214 C   0  0  0  0  0  0  0  0  0  0  0  0
   -3.8511   32.3176    7.0394 C   0  0  0  0  0  0  0  0  0  0  0  0
   -4.5627   33.0543    7.9918 C   0  0  0  0  0  0  0  0  0  0  0  0
   -4.1326   33.0971    9.3147 C   0  0  0  0  0  0  0  0  0  0  0  0
   -2.9844   32.4080    9.7182 C   0  0  0  0  0  0  0  0  0  0  0  0
   -2.2774   31.6714    8.7530 C   0  0  0  0  0  0  0  0  0  0  0  0
   -0.8485   30.7285    8.9362 S   0  0  0  0  0  0  0  0  0  0  0  0
   -4.6947   24.2991    2.0516 S   0  0  0  0  0  0  0  0  0  0  0  0
   -4.0436   23.1458    2.6262 O   0  0  0  0  0  0  0  0  0  0  0  0
   -4.2157   24.8902    0.8200 O   0  0  0  0  0  0  0  0  0  0  0  0
   -6.3064   23.9644    1.7887 N   0  0  0  0  0  0  0  0  0  0  0  0
   -6.9351   24.6352    2.2286 H   0  0  0  0  0  0  0  0  0  0  0  0
   -7.8238   23.3641    0.0098 C   0  0  0  0  0  0  0  0  0  0  0  0
   -6.8960   22.7992    1.1017 C   0  0  0  0  0  0  0  0  0  0  0  0
   -5.8611   21.8975    0.4296 C   0  0  0  0  0  0  0  0  0  0  0  0
   -7.7438   21.9983    2.0950 C   0  0  0  0  0  0  0  0  0  0  0  0
 28 29  1  0  0  0
 29 30  1  0  0  0
 29 31  1  0  0  0
 29 26  1  0  0  0
 26 23  1  0  0  0
 23 24  2  0  0  0
 23 25  2  0  0  0
 23  1  1  0  0  0
  1  2  1  0  0  0
  2  3  2  0  0  0
  3  4  1  0  0  0
  4  5  1  0  0  0
  4  6  2  0  0  0
  6  8  1  0  0  0
  8  9  2  0  0  0
  8 10  1  0  0  0
 10 12  1  0  0  0
 12 13  1  0  0  0
 13 14  1  0  0  0
 14 15  2  0  0  0
 15 16  1  0  0  0
 16 17  2  0  0  0
 17 18  1  0  0  0
 18 19  2  0  0  0
 19 20  1  0  0  0
 20 21  2  0  0  0
 21 22  1  0  0  0
  6  7  1  0  0  0
  7  1  2  0  0  0
 22 14  1  0  0  0
 21 16  1  0  0  0
 26 27  1  0  0  0
 10 11  1  0  0  0
M  END
> <minimizedAffinity>
-9.78864

$$$$
OCNT-2314494


 26 29  0  0  0  0  0  0  0  0999 V2000
   -6.2679   28.2647    6.2303 O   0  0  0  0  0  0  0  0  0  0  0  0
   -5.0818   28.4447    5.9774 C   0  0  0  0  0  0  0  0  0  0  0  0
   -4.3222   27.7137    5.0742 N   0  0  0  0  0  0  0  0  0  0  0  0
   -3.3572   28.0004    4.9615 H   0  0  0  0  0  0  0  0  0  0  0  0
   -4.7309   26.5996    4.3119 C   0  0  0  0  0  0  0  0  0  0  0  0
   -5.6863   25.6714    4.7286 C   0  0  0  0  0  0  0  0  0  0  0  0
   -6.0384   24.5878    3.9110 C   0  0  0  0  0  0  0  0  0  0  0  0
   -5.4344   24.4181    2.6575 C   0  0  0  0  0  0  0  0  0  0  0  0
   -4.4813   25.3469    2.2466 C   0  0  0  0  0  0  0  0  0  0  0  0
   -3.8652   25.2454    1.0615 F   0  0  0  0  0  0  0  0  0  0  0  0
   -4.1309   26.4260    3.0610 C   0  0  0  0  0  0  0  0  0  0  0  0
   -5.7998   23.3215    1.8460 N   0  0  0  0  0  0  0  0  0  0  0  0
   -5.5521   21.9793    1.9934 C   0  0  0  0  0  0  0  0  0  0  0  0
   -6.0859   21.3218    0.9890 N   0  0  0  0  0  0  0  0  0  0  0  0
   -6.6783   22.2681    0.1988 N   0  0  0  0  0  0  0  0  0  0  0  0
   -6.5132   23.4814    0.7047 N   0  0  0  0  0  0  0  0  0  0  0  0
   -4.2974   29.5952    6.5822 C   0  0  0  0  0  0  0  0  0  0  0  0
   -3.2215   29.0759    7.5330 C   0  0  0  0  0  0  0  0  0  0  0  0
   -2.1752   28.5168    6.6896 O   0  0  0  0  0  0  0  0  0  0  0  0
   -0.9940   28.1574    7.4224 C   0  0  0  0  0  0  0  0  0  0  0  0
   -0.2651   29.4243    7.8876 C   0  0  0  0  0  0  0  0  0  0  0  0
   -1.2365   30.3297    8.5742 C   0  0  0  0  0  0  0  0  0  0  0  0
   -2.5977   30.1655    8.3829 C   0  0  0  0  0  0  0  0  0  0  0  0
   -3.5055   31.2641    9.3212 S   0  0  0  0  0  0  0  0  0  0  0  0
   -2.0899   32.0110    9.9261 C   0  0  0  0  0  0  0  0  0  0  0  0
   -0.9434   31.4113    9.4532 C   0  0  0  0  0  0  0  0  0  0  0  0
  1  2  2  0  0  0
  2 17  1  0  0  0
 17 18  1  0  0  0
 18 19  1  0  0  0
 19 20  1  0  0  0
 20 21  1  0  0  0
 21 22  1  0  0  0
 22 23  2  0  0  0
 23 24  1  0  0  0
 24 25  1  0  0  0
 25 26  2  0  0  0
  2  3  1  0  0  0
  3  5  1  0  0  0
  5  6  1  0  0  0
  6  7  2  0  0  0
  7  8  1  0  0  0
  8 12  1  0  0  0
 12 13  1  0  0  0
 13 14  2  0  0  0
 14 15  1  0  0  0
 15 16  2  0  0  0
  8  9  2  0  0  0
  9 10  1  0  0  0
  9 11  1  0  0  0
 23 18  1  0  0  0
 11  5  2  0  0  0
 26 22  1  0  0  0
 16 12  1  0  0  0
  3  4  1  0  0  0
M  END
> <minimizedAffinity>
-9.21568

$$$$
OCNT-2314500


 27 29  0  0  0  0  0  0  0  0999 V2000
   -5.2911   29.9298    7.0380 C   0  0  0  0  0  0  0  0  0  0  0  0
   -4.1361   29.9168    6.3286 N   0  0  0  0  0  0  0  0  0  0  0  0
   -2.9963   30.3801    6.8922 C   0  0  0  0  0  0  0  0  0  0  0  0
   -2.9482   30.8610    8.1777 C   0  0  0  0  0  0  0  0  0  0  0  0
   -4.1293   30.9264    8.9068 C   0  0  0  0  0  0  0  0  0  0  0  0
   -5.3292   30.4656    8.3305 C   0  0  0  0  0  0  0  0  0  0  0  0
   -5.2290   25.2404    1.4433 C   0  0  0  0  0  0  0  0  0  0  0  0
   -5.5929   25.9437    2.7170 C   0  0  0  0  0  0  0  0  0  0  0  0
   -5.7781   25.2215    3.8984 C   0  0  0  0  0  0  0  0  0  0  0  0
   -6.0792   25.8832    5.0904 C   0  0  0  0  0  0  0  0  0  0  0  0
   -6.1893   27.2827    5.1305 C   0  0  0  0  0  0  0  0  0  0  0  0
   -6.5408   27.9495    6.4447 C   0  0  0  0  0  0  0  0  0  0  0  0
   -6.4411   29.4198    6.4381 N   0  0  0  0  0  0  0  0  0  0  0  0
   -6.8434   30.0510    5.1720 C   0  0  0  0  0  0  0  0  0  0  0  0
   -6.0915   29.5138    3.9527 C   0  0  0  0  0  0  0  0  0  0  0  0
   -6.0096   28.0105    3.9445 C   0  0  0  0  0  0  0  0  0  0  0  0
   -5.6947   27.3391    2.7522 C   0  0  0  0  0  0  0  0  0  0  0  0
   -1.4335   31.4467    8.8417 S   0  0  0  0  0  0  0  0  0  0  0  0
   -1.8660   31.8400   10.4191 N   0  0  0  0  0  0  0  0  0  0  0  0
   -0.5204   30.3337    8.9557 O   0  0  0  0  0  0  0  0  0  0  0  0
   -1.0878   32.6688    8.1576 O   0  0  0  0  0  0  0  0  0  0  0  0
   -1.3384   31.2536   11.0694 H   0  0  0  0  0  0  0  0  0  0  0  0
   -2.8677   31.8085   10.6033 H   0  0  0  0  0  0  0  0  0  0  0  0
   -6.6236   30.6039    9.0812 C   0  0  0  0  0  0  0  0  0  0  0  0
   -7.1669   29.4216    9.4801 F   0  0  0  0  0  0  0  0  0  0  0  0
   -6.5182   31.3782   10.1988 F   0  0  0  0  0  0  0  0  0  0  0  0
   -7.5979   31.2068    8.3343 F   0  0  0  0  0  0  0  0  0  0  0  0
  7  8  1  0  0  0
  8  9  1  0  0  0
  9 10  2  0  0  0
 10 11  1  0  0  0
 11 12  1  0  0  0
 12 13  1  0  0  0
 13  1  1  0  0  0
  1  2  1  0  0  0
  2  3  2  0  0  0
  3  4  1  0  0  0
  4 18  1  0  0  0
 18 19  1  0  0  0
 18 20  2  0  0  0
 18 21  2  0  0  0
  4  5  2  0  0  0
  5  6  1  0  0  0
  6 24  1  0  0  0
 24 25  1  0  0  0
 24 26  1  0  0  0
 24 27  1  0  0  0
 13 14  1  0  0  0
 14 15  1  0  0  0
 15 16  1  0  0  0
 16 17  1  0  0  0
 17  8  2  0  0  0
 16 11  2  0  0  0
  6  1  2  0  0  0
 19 22  1  0  0  0
 19 23  1  0  0  0
M  END
> <minimizedAffinity>
-9.21344

$$$$
OCNT-2314509


 27 29  0  0  0  0  0  0  0  0999 V2000
   -4.8417   27.7016    5.9136 C   0  0  0  0  0  0  0  0  0  0  0  0
   -5.7281   28.3865    6.4202 O   0  0  0  0  0  0  0  0  0  0  0  0
   -3.5271   27.7577    6.3531 N   0  0  0  0  0  0  0  0  0  0  0  0
   -2.3810   27.4282    5.5177 C   0  0  0  0  0  0  0  0  0  0  0  0
   -0.8896   27.6546    6.5161 S   0  0  0  0  0  0  0  0  0  0  0  0
   -1.8239   27.8799    8.0619 C   0  0  0  0  0  0  0  0  0  0  0  0
   -3.1725   28.4617    7.6038 C   0  0  0  0  0  0  0  0  0  0  0  0
   -5.7533   25.1304    2.5775 C   0  0  0  0  0  0  0  0  0  0  0  0
   -5.7231   26.5337    2.4270 C   0  0  0  0  0  0  0  0  0  0  0  0
   -5.4302   27.3796    3.5015 C   0  0  0  0  0  0  0  0  0  0  0  0
   -5.1941   26.8370    4.7643 C   0  0  0  0  0  0  0  0  0  0  0  0
   -5.1984   25.4526    4.9383 C   0  0  0  0  0  0  0  0  0  0  0  0
   -5.4799   24.6097    3.8562 C   0  0  0  0  0  0  0  0  0  0  0  0
   -4.9444   23.2111    1.1378 C   0  0  0  0  0  0  0  0  0  0  0  0
   -6.0839   24.2296    1.3702 C   0  0  0  0  0  0  0  0  0  0  0  0
   -6.2470   25.1124    0.1103 C   0  0  0  0  0  0  0  0  0  0  0  0
   -7.3896   23.4123    1.5340 C   0  0  0  0  0  0  0  0  0  0  0  0
   -3.1043   30.0193    7.5050 C   0  0  0  0  0  0  0  0  0  0  0  0
   -2.1592   30.5904    6.9624 O   0  0  0  0  0  0  0  0  0  0  0  0
   -4.1085   30.6638    8.2021 N   0  0  0  0  0  0  0  0  0  0  0  0
   -4.7131   30.0607    8.7528 H   0  0  0  0  0  0  0  0  0  0  0  0
   -4.3451   32.0487    8.3076 C   0  0  0  0  0  0  0  0  0  0  0  0
   -4.1157   32.6412    9.5533 C   0  0  0  0  0  0  0  0  0  0  0  0
   -4.3630   33.9970    9.7021 C   0  0  0  0  0  0  0  0  0  0  0  0
   -4.8203   34.7855    8.7093 N   0  0  0  0  0  0  0  0  0  0  0  0
   -5.0217   34.1897    7.5124 C   0  0  0  0  0  0  0  0  0  0  0  0
   -4.8046   32.8425    7.2654 C   0  0  0  0  0  0  0  0  0  0  0  0
 14 15  1  0  0  0
 15 16  1  0  0  0
 15 17  1  0  0  0
 15  8  1  0  0  0
  8  9  1  0  0  0
  9 10  2  0  0  0
 10 11  1  0  0  0
 11  1  1  0  0  0
  1  2  2  0  0  0
  1  3  1  0  0  0
  3  4  1  0  0  0
  4  5  1  0  0  0
  5  6  1  0  0  0
  6  7  1  0  0  0
  7 18  1  0  0  0
 18 19  2  0  0  0
 18 20  1  0  0  0
 20 22  1  0  0  0
 22 23  2  0  0  0
 23 24  1  0  0  0
 24 25  2  0  0  0
 25 26  1  0  0  0
 26 27  2  0  0  0
 11 12  2  0  0  0
 12 13  1  0  0  0
 13  8  2  0  0  0
  7  3  1  0  0  0
 27 22  1  0  0  0
 20 21  1  0  0  0
M  END
> <minimizedAffinity>
-8.65225

$$$$
OCNT-2314526


 31 34  0  0  0  0  0  0  0  0999 V2000
   -4.5519   28.2768    7.4003 N   0  0  0  0  0  0  0  0  0  0  0  0
   -5.0867   27.8199    8.1315 H   0  0  0  0  0  0  0  0  0  0  0  0
   -3.5672   29.1208    7.9190 C   0  0  0  0  0  0  0  0  0  0  0  0
   -2.2595   28.7090    7.8590 C   0  0  0  0  0  0  0  0  0  0  0  0
   -1.3294   29.5983    8.3372 C   0  0  0  0  0  0  0  0  0  0  0  0
   -1.6237   30.8201    8.8342 N   0  0  0  0  0  0  0  0  0  0  0  0
   -2.9224   31.1583    8.8369 C   0  0  0  0  0  0  0  0  0  0  0  0
   -3.8932   30.3369    8.3868 N   0  0  0  0  0  0  0  0  0  0  0  0
    0.1177   29.2244    8.3227 C   0  0  0  0  0  0  0  0  0  0  0  0
    0.5259   28.4995    7.2359 N   0  0  0  0  0  0  0  0  0  0  0  0
    0.8921   29.5426    9.2157 O   0  0  0  0  0  0  0  0  0  0  0  0
   -0.1452   28.2427    6.5212 H   0  0  0  0  0  0  0  0  0  0  0  0
    1.4882   28.2024    7.1672 H   0  0  0  0  0  0  0  0  0  0  0  0
   -3.3420   32.5129    9.3666 C   0  0  0  0  0  0  0  0  0  0  0  0
   -3.8655   33.5768    8.4283 C   0  0  0  0  0  0  0  0  0  0  0  0
   -4.7973   32.9205    9.4056 C   0  0  0  0  0  0  0  0  0  0  0  0
   -6.8681   28.8718    6.7866 C   0  0  0  0  0  0  0  0  0  0  0  0
   -5.4064   28.7918    6.3287 C   0  0  0  0  0  0  0  0  0  0  0  0
   -5.1881   27.8902    5.1160 C   0  0  0  0  0  0  0  0  0  0  0  0
   -5.9708   28.1107    3.9664 C   0  0  0  0  0  0  0  0  0  0  0  0
   -5.8031   27.3323    2.8191 C   0  0  0  0  0  0  0  0  0  0  0  0
   -4.8512   26.3141    2.8100 C   0  0  0  0  0  0  0  0  0  0  0  0
   -4.0393   26.1044    3.9221 C   0  0  0  0  0  0  0  0  0  0  0  0
   -4.2074   26.8859    5.0691 C   0  0  0  0  0  0  0  0  0  0  0  0
   -4.6153   25.5388    1.6994 O   0  0  0  0  0  0  0  0  0  0  0  0
   -5.6852   24.8727    1.1557 C   0  0  0  0  0  0  0  0  0  0  0  0
   -6.3061   23.7731    1.7370 C   0  0  0  0  0  0  0  0  0  0  0  0
   -7.3414   23.1053    1.1716 N   0  0  0  0  0  0  0  0  0  0  0  0
   -7.7600   23.5488   -0.0341 C   0  0  0  0  0  0  0  0  0  0  0  0
   -7.1907   24.6223   -0.7017 C   0  0  0  0  0  0  0  0  0  0  0  0
   -6.1296   25.2898   -0.0954 C   0  0  0  0  0  0  0  0  0  0  0  0
 17 18  1  0  0  0
 18  1  1  0  0  0
  1  3  1  0  0  0
  3  4  1  0  0  0
  4  5  2  0  0  0
  5  9  1  0  0  0
  9 10  1  0  0  0
  9 11  2  0  0  0
  5  6  1  0  0  0
  6  7  2  0  0  0
  7 14  1  0  0  0
 14 15  1  0  0  0
 15 16  1  0  0  0
  7  8  1  0  0  0
 18 19  1  0  0  0
 19 20  1  0  0  0
 20 21  2  0  0  0
 21 22  1  0  0  0
 22 25  1  0  0  0
 25 26  1  0  0  0
 26 27  2  0  0  0
 27 28  1  0  0  0
 28 29  2  0  0  0
 29 30  1  0  0  0
 30 31  2  0  0  0
 22 23  2  0  0  0
 23 24  1  0  0  0
  8  3  2  0  0  0
 24 19  2  0  0  0
 16 14  1  0  0  0
 31 26  1  0  0  0
  1  2  1  0  0  0
 10 12  1  0  0  0
 10 13  1  0  0  0
M  END
> <minimizedAffinity>
-9.98674

$$$$
OCNT-2314528


 24 27  0  0  0  0  0  0  0  0999 V2000
   -5.7142   29.7555    6.7459 C   0  0  0  0  0  0  0  0  0  0  0  0
   -2.7844   30.4967    7.6901 N   0  0  0  0  0  0  0  0  0  0  0  0
   -3.2667   31.6854    6.9928 C   0  0  0  0  0  0  0  0  0  0  0  0
   -4.6611   31.9110    7.5739 C   0  0  0  0  0  0  0  0  0  0  0  0
   -5.1355   30.5074    7.9556 C   0  0  0  0  0  0  0  0  0  0  0  0
   -3.8432   29.8695    8.4791 C   0  0  0  0  0  0  0  0  0  0  0  0
    1.2429   29.2329    7.6910 C   0  0  0  0  0  0  0  0  0  0  0  0
    0.5786   29.4608    6.4930 C   0  0  0  0  0  0  0  0  0  0  0  0
   -0.7577   29.8814    6.4996 C   0  0  0  0  0  0  0  0  0  0  0  0
   -1.4707   30.0885    7.6919 C   0  0  0  0  0  0  0  0  0  0  0  0
   -0.7686   29.8457    8.8837 C   0  0  0  0  0  0  0  0  0  0  0  0
    0.5680   29.4255    8.8893 C   0  0  0  0  0  0  0  0  0  0  0  0
   -5.2825   28.3546    6.7769 N   0  0  0  0  0  0  0  0  0  0  0  0
   -4.4318   28.2386    7.3224 H   0  0  0  0  0  0  0  0  0  0  0  0
   -5.0278   27.7880    5.5015 C   0  0  0  0  0  0  0  0  0  0  0  0
   -5.9807   27.8569    4.5562 N   0  0  0  0  0  0  0  0  0  0  0  0
   -5.6864   27.3215    3.3670 C   0  0  0  0  0  0  0  0  0  0  0  0
   -4.5399   26.7243    3.0259 N   0  0  0  0  0  0  0  0  0  0  0  0
   -3.6050   26.6427    3.9767 C   0  0  0  0  0  0  0  0  0  0  0  0
   -2.4006   26.0181    3.6737 C   0  0  0  0  0  0  0  0  0  0  0  0
   -1.3783   25.8833    4.6170 C   0  0  0  0  0  0  0  0  0  0  0  0
   -1.5569   26.3783    5.9011 C   0  0  0  0  0  0  0  0  0  0  0  0
   -2.7543   27.0105    6.2283 C   0  0  0  0  0  0  0  0  0  0  0  0
   -3.7885   27.1580    5.2678 C   0  0  0  0  0  0  0  0  0  0  0  0
  7  8  2  0  0  0
  8  9  1  0  0  0
  9 10  2  0  0  0
 10  2  1  0  0  0
  2  3  1  0  0  0
  3  4  1  0  0  0
  4  5  1  0  0  0
  5  1  1  0  0  0
  1 13  1  0  0  0
 13 15  1  0  0  0
 15 16  1  0  0  0
 16 17  2  0  0  0
 17 18  1  0  0  0
 18 19  2  0  0  0
 19 20  1  0  0  0
 20 21  2  0  0  0
 21 22  1  0  0  0
 22 23  2  0  0  0
 23 24  1  0  0  0
  5  6  1  0  0  0
 10 11  1  0  0  0
 11 12  2  0  0  0
 12  7  1  0  0  0
  6  2  1  0  0  0
 24 15  2  0  0  0
 24 19  1  0  0  0
 13 14  1  0  0  0
M  END
> <minimizedAffinity>
-8.94984

$$$$
OCNT-2314548


 35 39  0  0  0  0  0  0  0  0999 V2000
   -5.7333   25.5128    3.4807 C   0  0  0  0  0  0  0  0  0  0  0  0
   -5.6172   26.1176    4.8932 C   0  0  0  0  0  0  0  0  0  0  0  0
   -4.4254   27.0614    4.9963 C   0  0  0  0  0  0  0  0  0  0  0  0
   -3.1724   26.3339    4.7799 N   0  0  0  0  0  0  0  0  0  0  0  0
   -1.9314   26.6747    5.3274 C   0  0  0  0  0  0  0  0  0  0  0  0
   -0.8810   26.1976    4.9011 O   0  0  0  0  0  0  0  0  0  0  0  0
   -3.1862   25.2972    3.7469 C   0  0  0  0  0  0  0  0  0  0  0  0
   -4.3628   25.4165    2.7804 C   0  0  0  0  0  0  0  0  0  0  0  0
   -1.8889   27.6145    6.4321 C   0  0  0  0  0  0  0  0  0  0  0  0
   -2.6005   28.7962    6.5150 C   0  0  0  0  0  0  0  0  0  0  0  0
   -2.2373   29.4210    7.6868 N   0  0  0  0  0  0  0  0  0  0  0  0
   -1.3005   28.6985    8.3565 N   0  0  0  0  0  0  0  0  0  0  0  0
   -1.0716   27.6419    7.5764 C   0  0  0  0  0  0  0  0  0  0  0  0
   -2.7164   30.6519    8.2100 C   0  0  0  0  0  0  0  0  0  0  0  0
   -3.6264   31.4080    7.4640 C   0  0  0  0  0  0  0  0  0  0  0  0
   -4.0753   32.6044    7.9951 C   0  0  0  0  0  0  0  0  0  0  0  0
   -3.6854   33.0858    9.1943 N   0  0  0  0  0  0  0  0  0  0  0  0
   -2.8090   32.3366    9.8956 C   0  0  0  0  0  0  0  0  0  0  0  0
   -2.2980   31.1255    9.4552 C   0  0  0  0  0  0  0  0  0  0  0  0
   -5.9268   23.1000    2.5517 C   0  0  0  0  0  0  0  0  0  0  0  0
   -6.5351   24.1813    3.4465 C   0  0  0  0  0  0  0  0  0  0  0  0
   -6.7261   23.6487    4.7914 N   0  0  0  0  0  0  0  0  0  0  0  0
   -7.8564   22.9278    5.1454 C   0  0  0  0  0  0  0  0  0  0  0  0
   -8.7706   22.7133    4.3529 O   0  0  0  0  0  0  0  0  0  0  0  0
   -5.9418   23.6354    5.4297 H   0  0  0  0  0  0  0  0  0  0  0  0
   -7.8527   22.4279    6.5318 C   0  0  0  0  0  0  0  0  0  0  0  0
   -6.7226   21.9658    7.1001 N   0  0  0  0  0  0  0  0  0  0  0  0
   -7.0903   21.6133    8.3387 N   0  0  0  0  0  0  0  0  0  0  0  0
   -8.4121   21.8226    8.6165 C   0  0  0  0  0  0  0  0  0  0  0  0
   -9.1624   21.5867    9.7731 C   0  0  0  0  0  0  0  0  0  0  0  0
  -10.5259   21.8915    9.7228 C   0  0  0  0  0  0  0  0  0  0  0  0
  -11.1062   22.4018    8.5631 C   0  0  0  0  0  0  0  0  0  0  0  0
  -10.3345   22.6309    7.4163 C   0  0  0  0  0  0  0  0  0  0  0  0
   -8.9534   22.3461    7.4472 C   0  0  0  0  0  0  0  0  0  0  0  0
   -6.3848   21.2283    8.9548 H   0  0  0  0  0  0  0  0  0  0  0  0
 20 21  1  0  0  0
 21 22  1  0  0  0
 22 23  1  0  0  0
 23 24  2  0  0  0
 23 26  1  0  0  0
 26 27  2  0  0  0
 27 28  1  0  0  0
 28 29  1  0  0  0
 29 30  2  0  0  0
 30 31  1  0  0  0
 31 32  2  0  0  0
 32 33  1  0  0  0
 33 34  2  0  0  0
 21  1  1  0  0  0
  1  2  1  0  0  0
  2  3  1  0  0  0
  3  4  1  0  0  0
  4  5  1  0  0  0
  5  6  2  0  0  0
  5  9  1  0  0  0
  9 10  2  0  0  0
 10 11  1  0  0  0
 11 14  1  0  0  0
 14 15  2  0  0  0
 15 16  1  0  0  0
 16 17  2  0  0  0
 17 18  1  0  0  0
 18 19  2  0  0  0
 11 12  1  0  0  0
 12 13  2  0  0  0
  4  7  1  0  0  0
  7  8  1  0  0  0
 34 26  1  0  0  0
  8  1  1  0  0  0
 34 29  1  0  0  0
 13  9  1  0  0  0
 19 14  1  0  0  0
 22 25  1  0  0  0
 28 35  1  0  0  0
M  END
> <minimizedAffinity>
-10.02652

$$$$
OCNT-2314551


 32 35  0  0  0  0  0  0  0  0999 V2000
   -6.9667   29.9135    6.6785 C   0  0  0  0  0  0  0  0  0  0  0  0
   -6.4347   30.6425    7.9152 C   0  0  0  0  0  0  0  0  0  0  0  0
   -6.5022   30.1743    9.0489 O   0  0  0  0  0  0  0  0  0  0  0  0
   -5.8616   31.8668    7.6381 N   0  0  0  0  0  0  0  0  0  0  0  0
   -5.6147   32.0853    6.6794 H   0  0  0  0  0  0  0  0  0  0  0  0
   -5.1811   32.6269    8.6736 C   0  0  0  0  0  0  0  0  0  0  0  0
   -3.6638   32.4714    8.5817 C   0  0  0  0  0  0  0  0  0  0  0  0
   -3.2792   31.3635    9.4032 O   0  0  0  0  0  0  0  0  0  0  0  0
   -2.4165   30.4517    8.8575 C   0  0  0  0  0  0  0  0  0  0  0  0
   -1.0160   30.4586    8.9994 C   0  0  0  0  0  0  0  0  0  0  0  0
   -0.2319   29.4686    8.3926 C   0  0  0  0  0  0  0  0  0  0  0  0
   -0.8753   28.4971    7.6581 C   0  0  0  0  0  0  0  0  0  0  0  0
   -0.2779   27.4650    7.0058 O   0  0  0  0  0  0  0  0  0  0  0  0
   -1.4262   26.8047    6.4338 C   0  0  0  0  0  0  0  0  0  0  0  0
   -2.6766   27.4508    6.7521 O   0  0  0  0  0  0  0  0  0  0  0  0
   -2.2410   28.4890    7.5149 C   0  0  0  0  0  0  0  0  0  0  0  0
   -3.0365   29.4505    8.1005 C   0  0  0  0  0  0  0  0  0  0  0  0
   -5.9795   29.0866    6.0638 O   0  0  0  0  0  0  0  0  0  0  0  0
   -6.0806   29.0193    4.7137 C   0  0  0  0  0  0  0  0  0  0  0  0
   -6.1978   29.9694    3.9567 O   0  0  0  0  0  0  0  0  0  0  0  0
   -5.7859   23.7381    3.0912 N   0  0  0  0  0  0  0  0  0  0  0  0
   -5.5470   23.7761    1.7558 N   0  0  0  0  0  0  0  0  0  0  0  0
   -5.4973   25.0842    1.4855 C   0  0  0  0  0  0  0  0  0  0  0  0
   -5.7037   25.8894    2.6248 C   0  0  0  0  0  0  0  0  0  0  0  0
   -5.7589   27.2597    2.9225 C   0  0  0  0  0  0  0  0  0  0  0  0
   -5.9959   27.6156    4.2568 C   0  0  0  0  0  0  0  0  0  0  0  0
   -6.1531   26.6058    5.2048 C   0  0  0  0  0  0  0  0  0  0  0  0
   -6.1134   25.2698    4.9603 N   0  0  0  0  0  0  0  0  0  0  0  0
   -5.8863   24.9832    3.6609 C   0  0  0  0  0  0  0  0  0  0  0  0
   -7.3442   21.9379    3.7452 C   0  0  0  0  0  0  0  0  0  0  0  0
   -5.9080   22.4603    3.7825 C   0  0  0  0  0  0  0  0  0  0  0  0
   -4.9273   21.4310    3.2227 C   0  0  0  0  0  0  0  0  0  0  0  0
 30 31  1  0  0  0
 31 32  1  0  0  0
 31 21  1  0  0  0
 21 22  1  0  0  0
 22 23  2  0  0  0
 23 24  1  0  0  0
 24 25  1  0  0  0
 25 26  2  0  0  0
 26 19  1  0  0  0
 19 20  2  0  0  0
 19 18  1  0  0  0
 18  1  1  0  0  0
  1  2  1  0  0  0
  2  3  2  0  0  0
  2  4  1  0  0  0
  4  6  1  0  0  0
  6  7  1  0  0  0
  7  8  1  0  0  0
  8  9  1  0  0  0
  9 10  1  0  0  0
 10 11  2  0  0  0
 11 12  1  0  0  0
 12 13  1  0  0  0
 13 14  1  0  0  0
 14 15  1  0  0  0
 15 16  1  0  0  0
 16 17  1  0  0  0
 26 27  1  0  0  0
 27 28  2  0  0  0
 28 29  1  0  0  0
 29 21  1  0  0  0
 29 24  2  0  0  0
 17  9  2  0  0  0
 16 12  2  0  0  0
  4  5  1  0  0  0
M  END
> <minimizedAffinity>
-9.40227

$$$$
OCNT-2314559


 31 35  0  0  0  0  0  0  0  0999 V2000
   -4.0343   25.4838    3.9504 C   0  0  0  0  0  0  0  0  0  0  0  0
   -4.7862   24.7938    4.8132 N   0  0  0  0  0  0  0  0  0  0  0  0
   -5.8329   24.0867    4.3315 C   0  0  0  0  0  0  0  0  0  0  0  0
   -6.1412   24.0212    2.9678 C   0  0  0  0  0  0  0  0  0  0  0  0
   -7.1931   23.2682    2.3807 C   0  0  0  0  0  0  0  0  0  0  0  0
   -7.4030   23.2886    1.0041 C   0  0  0  0  0  0  0  0  0  0  0  0
   -6.5676   24.0520    0.2014 C   0  0  0  0  0  0  0  0  0  0  0  0
   -5.5258   24.7806    0.7818 C   0  0  0  0  0  0  0  0  0  0  0  0
   -5.2945   24.7737    2.1526 C   0  0  0  0  0  0  0  0  0  0  0  0
   -4.2686   25.4852    2.6305 N   0  0  0  0  0  0  0  0  0  0  0  0
   -1.6306   27.2318    6.2141 C   0  0  0  0  0  0  0  0  0  0  0  0
   -2.7837   26.2605    5.8895 C   0  0  0  0  0  0  0  0  0  0  0  0
   -2.9539   26.1954    4.4346 N   0  0  0  0  0  0  0  0  0  0  0  0
   -1.7240   26.2137    3.6348 C   0  0  0  0  0  0  0  0  0  0  0  0
   -0.4994   25.9413    4.5254 C   0  0  0  0  0  0  0  0  0  0  0  0
   -0.3663   26.8639    5.6165 O   0  0  0  0  0  0  0  0  0  0  0  0
   -1.4553   27.4993    7.7258 C   0  0  0  0  0  0  0  0  0  0  0  0
    0.4455   29.1276    7.4508 C   0  0  0  0  0  0  0  0  0  0  0  0
   -0.8218   28.7775    8.0843 N   0  0  0  0  0  0  0  0  0  0  0  0
   -1.5472   29.8449    8.6060 C   0  0  0  0  0  0  0  0  0  0  0  0
   -0.9454   31.0365    8.9961 C   0  0  0  0  0  0  0  0  0  0  0  0
   -1.7103   32.0860    9.5030 C   0  0  0  0  0  0  0  0  0  0  0  0
   -3.0718   31.9158    9.5953 C   0  0  0  0  0  0  0  0  0  0  0  0
   -3.6670   30.7779    9.2106 N   0  0  0  0  0  0  0  0  0  0  0  0
   -2.8954   29.7502    8.7101 N   0  0  0  0  0  0  0  0  0  0  0  0
   -6.6083   23.4025    5.3797 C   0  0  0  0  0  0  0  0  0  0  0  0
   -5.9795   22.5079    6.2617 C   0  0  0  0  0  0  0  0  0  0  0  0
   -6.7044   21.8558    7.2623 C   0  0  0  0  0  0  0  0  0  0  0  0
   -8.0698   22.0950    7.4019 C   0  0  0  0  0  0  0  0  0  0  0  0
   -8.7094   22.9904    6.5475 C   0  0  0  0  0  0  0  0  0  0  0  0
   -7.9831   23.6429    5.5478 C   0  0  0  0  0  0  0  0  0  0  0  0
 18 19  1  0  0  0
 19 17  1  0  0  0
 17 11  1  0  0  0
 11 12  1  0  0  0
 12 13  1  0  0  0
 13  1  1  0  0  0
  1  2  2  0  0  0
  2  3  1  0  0  0
  3 26  1  0  0  0
 26 27  2  0  0  0
 27 28  1  0  0  0
 28 29  2  0  0  0
 29 30  1  0  0  0
 30 31  2  0  0  0
  3  4  2  0  0  0
  4  5  1  0  0  0
  5  6  2  0  0  0
  6  7  1  0  0  0
  7  8  2  0  0  0
  8  9  1  0  0  0
  9 10  2  0  0  0
 13 14  1  0  0  0
 14 15  1  0  0  0
 15 16  1  0  0  0
 19 20  1  0  0  0
 20 21  2  0  0  0
 21 22  1  0  0  0
 22 23  2  0  0  0
 23 24  1  0  0  0
 24 25  2  0  0  0
 16 11  1  0  0  0
 25 20  1  0  0  0
 10  1  1  0  0  0
 31 26  1  0  0  0
  9  4  1  0  0  0
M  END
> <minimizedAffinity>
-11.43110

$$$$
OCNT-2314584


 27 29  0  0  0  0  0  0  0  0999 V2000
   -2.7589   28.4735    6.1725 N   0  0  0  0  0  0  0  0  0  0  0  0
   -2.5224   27.1192    6.2912 C   0  0  0  0  0  0  0  0  0  0  0  0
   -2.0854   26.6217    7.3232 O   0  0  0  0  0  0  0  0  0  0  0  0
   -3.3601   28.7548    5.4112 H   0  0  0  0  0  0  0  0  0  0  0  0
   -1.5129   30.2773    7.4725 C   0  0  0  0  0  0  0  0  0  0  0  0
   -1.9846   31.5158    6.6867 C   0  0  0  0  0  0  0  0  0  0  0  0
   -3.4013   31.5536    6.8873 N   0  0  0  0  0  0  0  0  0  0  0  0
   -3.9219   30.3102    7.1882 C   0  0  0  0  0  0  0  0  0  0  0  0
   -5.1127   30.0483    7.1778 O   0  0  0  0  0  0  0  0  0  0  0  0
   -2.7532   29.3305    7.3539 C   0  0  0  0  0  0  0  0  0  0  0  0
   -4.0215   32.2957    6.5839 H   0  0  0  0  0  0  0  0  0  0  0  0
   -1.1240   32.1102    9.3009 C   0  0  0  0  0  0  0  0  0  0  0  0
   -1.3144   30.6310    8.9819 C   0  0  0  0  0  0  0  0  0  0  0  0
   -0.2228   29.7032    6.8359 C   0  0  0  0  0  0  0  0  0  0  0  0
    0.7767   29.1190    7.8274 C   0  0  0  0  0  0  0  0  0  0  0  0
   -2.8226   26.3487    5.1061 C   0  0  0  0  0  0  0  0  0  0  0  0
   -4.0292   25.9334    4.5666 C   0  0  0  0  0  0  0  0  0  0  0  0
   -3.7225   25.2171    3.3782 C   0  0  0  0  0  0  0  0  0  0  0  0
   -2.3956   25.1860    3.1935 N   0  0  0  0  0  0  0  0  0  0  0  0
   -1.8798   25.8758    4.2277 N   0  0  0  0  0  0  0  0  0  0  0  0
   -0.4436   26.0224    4.3197 C   0  0  0  0  0  0  0  0  0  0  0  0
   -4.6415   24.5742    2.4327 C   0  0  0  0  0  0  0  0  0  0  0  0
   -5.4116   25.3226    1.5387 C   0  0  0  0  0  0  0  0  0  0  0  0
   -6.2622   24.6533    0.6719 C   0  0  0  0  0  0  0  0  0  0  0  0
   -6.3974   23.3122    0.6351 N   0  0  0  0  0  0  0  0  0  0  0  0
   -5.6437   22.6055    1.5028 C   0  0  0  0  0  0  0  0  0  0  0  0
   -4.7659   23.1813    2.4053 C   0  0  0  0  0  0  0  0  0  0  0  0
 12 13  1  0  0  0
 13  5  1  0  0  0
  5 14  1  0  0  0
 14 15  1  0  0  0
  5  6  1  0  0  0
  6  7  1  0  0  0
  7  8  1  0  0  0
  8  9  2  0  0  0
  8 10  1  0  0  0
 10  1  1  0  0  0
  1  2  1  0  0  0
  2  3  2  0  0  0
  2 16  1  0  0  0
 16 17  2  0  0  0
 17 18  1  0  0  0
 18 22  1  0  0  0
 22 23  2  0  0  0
 23 24  1  0  0  0
 24 25  2  0  0  0
 25 26  1  0  0  0
 26 27  2  0  0  0
 18 19  2  0  0  0
 19 20  1  0  0  0
 20 21  1  0  0  0
 10  5  1  0  0  0
 20 16  1  0  0  0
 27 22  1  0  0  0
  7 11  1  0  0  0
  1  4  1  0  0  0
M  END
> <minimizedAffinity>
-9.09956

$$$$
OCNT-2314588


 27 30  0  0  0  0  0  0  0  0999 V2000
   -4.2718   31.4335    6.8280 N   0  0  0  0  0  0  0  0  0  0  0  0
   -4.6183   32.2333    7.3550 H   0  0  0  0  0  0  0  0  0  0  0  0
   -4.5480   30.2154    7.5891 C   0  0  0  0  0  0  0  0  0  0  0  0
   -6.0204   30.0456    7.9432 C   0  0  0  0  0  0  0  0  0  0  0  0
   -6.5170   30.5819    9.2853 C   0  0  0  0  0  0  0  0  0  0  0  0
   -6.3619   29.1090    9.0986 C   0  0  0  0  0  0  0  0  0  0  0  0
   -6.9879   30.1177    6.7698 C   0  0  0  0  0  0  0  0  0  0  0  0
   -5.5722   26.6598    2.5328 F   0  0  0  0  0  0  0  0  0  0  0  0
   -5.9071   27.4794    3.5378 C   0  0  0  0  0  0  0  0  0  0  0  0
   -5.9900   28.8464    3.3081 C   0  0  0  0  0  0  0  0  0  0  0  0
   -6.3384   29.7011    4.3554 C   0  0  0  0  0  0  0  0  0  0  0  0
   -6.6072   29.1900    5.6352 C   0  0  0  0  0  0  0  0  0  0  0  0
   -6.5104   27.8045    5.8442 C   0  0  0  0  0  0  0  0  0  0  0  0
   -6.1634   26.9506    4.7960 C   0  0  0  0  0  0  0  0  0  0  0  0
   -2.8666   31.6446    6.4921 C   0  0  0  0  0  0  0  0  0  0  0  0
   -1.9646   31.4221    7.6617 C   0  0  0  0  0  0  0  0  0  0  0  0
   -1.7159   32.3222    8.6808 C   0  0  0  0  0  0  0  0  0  0  0  0
   -0.8344   31.7219    9.5227 N   0  0  0  0  0  0  0  0  0  0  0  0
   -0.4751   30.4956    9.1310 N   0  0  0  0  0  0  0  0  0  0  0  0
   -1.1819   30.2714    8.0112 C   0  0  0  0  0  0  0  0  0  0  0  0
   -0.4317   32.0891   10.3792 H   0  0  0  0  0  0  0  0  0  0  0  0
   -1.0574   28.9967    7.3145 C   0  0  0  0  0  0  0  0  0  0  0  0
   -1.9381   27.9360    7.5358 C   0  0  0  0  0  0  0  0  0  0  0  0
   -1.7813   26.7467    6.8251 C   0  0  0  0  0  0  0  0  0  0  0  0
   -0.7409   26.6545    5.9147 C   0  0  0  0  0  0  0  0  0  0  0  0
    0.1378   27.6509    5.6792 N   0  0  0  0  0  0  0  0  0  0  0  0
   -0.0344   28.7930    6.3927 C   0  0  0  0  0  0  0  0  0  0  0  0
  8  9  1  0  0  0
  9 10  1  0  0  0
 10 11  2  0  0  0
 11 12  1  0  0  0
 12  7  1  0  0  0
  7  4  1  0  0  0
  4  3  1  0  0  0
  3  1  1  0  0  0
  1 15  1  0  0  0
 15 16  1  0  0  0
 16 17  2  0  0  0
 17 18  1  0  0  0
 18 19  1  0  0  0
 19 20  2  0  0  0
 20 22  1  0  0  0
 22 23  1  0  0  0
 23 24  2  0  0  0
 24 25  1  0  0  0
 25 26  2  0  0  0
 26 27  1  0  0  0
  4  5  1  0  0  0
  5  6  1  0  0  0
 12 13  2  0  0  0
 13 14  1  0  0  0
 14  9  2  0  0  0
  6  4  1  0  0  0
 20 16  1  0  0  0
 27 22  2  0  0  0
  1  2  1  0  0  0
 18 21  1  0  0  0
M  END
> <minimizedAffinity>
-9.03124

$$$$
OCNT-2314592


 25 27  0  0  0  0  0  0  0  0999 V2000
   -3.9873   25.9690    3.9656 C   0  0  0  0  0  0  0  0  0  0  0  0
   -5.1340   25.2928    3.5817 C   0  0  0  0  0  0  0  0  0  0  0  0
   -4.9480   25.0182    2.2331 N   0  0  0  0  0  0  0  0  0  0  0  0
   -3.8217   25.6555    1.8142 N   0  0  0  0  0  0  0  0  0  0  0  0
   -3.2130   26.1892    2.8618 N   0  0  0  0  0  0  0  0  0  0  0  0
   -5.7005   24.2237    1.3226 C   0  0  0  0  0  0  0  0  0  0  0  0
   -6.5890   24.8569    0.4367 C   0  0  0  0  0  0  0  0  0  0  0  0
   -7.3417   24.1086   -0.4712 C   0  0  0  0  0  0  0  0  0  0  0  0
   -7.2109   22.7245   -0.5117 C   0  0  0  0  0  0  0  0  0  0  0  0
   -6.3200   22.0889    0.3484 C   0  0  0  0  0  0  0  0  0  0  0  0
   -5.5640   22.8332    1.2595 C   0  0  0  0  0  0  0  0  0  0  0  0
   -6.3241   24.9400    4.5159 C   0  0  0  0  0  0  0  0  0  0  0  0
   -6.2105   23.7487    5.4348 C   0  0  0  0  0  0  0  0  0  0  0  0
   -7.1306   23.6914    4.2585 C   0  0  0  0  0  0  0  0  0  0  0  0
   -3.5370   26.4650    5.2994 C   0  0  0  0  0  0  0  0  0  0  0  0
   -3.7610   27.9128    5.4385 N   0  0  0  0  0  0  0  0  0  0  0  0
   -3.5596   28.3575    4.5448 H   0  0  0  0  0  0  0  0  0  0  0  0
   -5.1344   28.2364    5.8832 C   0  0  0  0  0  0  0  0  0  0  0  0
   -5.9263   28.7902    4.6905 C   0  0  0  0  0  0  0  0  0  0  0  0
   -5.0188   29.2741    7.0114 C   0  0  0  0  0  0  0  0  0  0  0  0
   -1.7819   31.1537    6.5170 C   0  0  0  0  0  0  0  0  0  0  0  0
   -3.1487   30.6994    6.4735 N   0  0  0  0  0  0  0  0  0  0  0  0
   -3.5894   29.6886    7.3060 C   0  0  0  0  0  0  0  0  0  0  0  0
   -2.8896   29.1771    8.1747 O   0  0  0  0  0  0  0  0  0  0  0  0
   -3.7033   30.9271    5.6581 H   0  0  0  0  0  0  0  0  0  0  0  0
 21 22  1  0  0  0
 22 23  1  0  0  0
 23 24  2  0  0  0
 23 20  1  0  0  0
 20 18  1  0  0  0
 18 19  1  0  0  0
 18 16  1  0  0  0
 16 15  1  0  0  0
 15  1  1  0  0  0
  1  2  2  0  0  0
  2 12  1  0  0  0
 12 13  1  0  0  0
 13 14  1  0  0  0
  2  3  1  0  0  0
  3  6  1  0  0  0
  6  7  2  0  0  0
  7  8  1  0  0  0
  8  9  2  0  0  0
  9 10  1  0  0  0
 10 11  2  0  0  0
  3  4  1  0  0  0
  4  5  2  0  0  0
  5  1  1  0  0  0
 14 12  1  0  0  0
 11  6  1  0  0  0
 22 25  1  0  0  0
 16 17  1  0  0  0
M  END
> <minimizedAffinity>
-7.93811

$$$$
OCNT-2314594


 25 26  0  0  0  0  0  0  0  0999 V2000
   -3.3108   27.1027    5.2413 N   0  0  0  0  0  0  0  0  0  0  0  0
   -2.6561   25.9544    4.6303 C   0  0  0  0  0  0  0  0  0  0  0  0
   -2.7442   27.5947    6.4263 C   0  0  0  0  0  0  0  0  0  0  0  0
   -1.7556   27.0529    6.9261 O   0  0  0  0  0  0  0  0  0  0  0  0
   -4.6729   27.4178    4.7914 C   0  0  0  0  0  0  0  0  0  0  0  0
   -5.6743   26.2585    4.9243 C   0  0  0  0  0  0  0  0  0  0  0  0
   -6.1436   23.8746    1.3438 C   0  0  0  0  0  0  0  0  0  0  0  0
   -5.8448   25.2378    1.2542 C   0  0  0  0  0  0  0  0  0  0  0  0
   -5.6918   26.0076    2.4103 C   0  0  0  0  0  0  0  0  0  0  0  0
   -5.8390   25.4282    3.6742 C   0  0  0  0  0  0  0  0  0  0  0  0
   -6.1451   24.0619    3.7646 C   0  0  0  0  0  0  0  0  0  0  0  0
   -6.2874   23.2789    2.6121 C   0  0  0  0  0  0  0  0  0  0  0  0
   -7.4283   23.2636   -0.5768 C   0  0  0  0  0  0  0  0  0  0  0  0
   -6.3055   23.0427    0.2636 O   0  0  0  0  0  0  0  0  0  0  0  0
   -6.5752   21.9359    2.6210 O   0  0  0  0  0  0  0  0  0  0  0  0
   -7.8997   21.5520    2.9634 C   0  0  0  0  0  0  0  0  0  0  0  0
   -3.4114   28.8441    7.0406 C   0  0  0  0  0  0  0  0  0  0  0  0
   -2.6937   29.3318    8.2275 N   0  0  0  0  0  0  0  0  0  0  0  0
   -3.6096   30.0315    9.1401 C   0  0  0  0  0  0  0  0  0  0  0  0
   -2.9344   31.3897    8.8292 C   0  0  0  0  0  0  0  0  0  0  0  0
   -2.4757   32.1413   10.0836 C   0  0  0  0  0  0  0  0  0  0  0  0
   -3.8329   32.3110    7.9920 C   0  0  0  0  0  0  0  0  0  0  0  0
   -1.8394   30.5385    8.0574 C   0  0  0  0  0  0  0  0  0  0  0  0
   -1.5114   31.0042    6.6351 C   0  0  0  0  0  0  0  0  0  0  0  0
   -0.5174   30.2927    8.8107 C   0  0  0  0  0  0  0  0  0  0  0  0
 13 14  1  0  0  0
 14  7  1  0  0  0
  7  8  1  0  0  0
  8  9  2  0  0  0
  9 10  1  0  0  0
 10  6  1  0  0  0
  6  5  1  0  0  0
  5  1  1  0  0  0
  1  2  1  0  0  0
  1  3  1  0  0  0
  3  4  2  0  0  0
  3 17  1  0  0  0
 17 18  1  0  0  0
 18 19  1  0  0  0
 19 20  1  0  0  0
 20 21  1  0  0  0
 20 22  1  0  0  0
 20 23  1  0  0  0
 23 24  1  0  0  0
 23 25  1  0  0  0
 10 11  2  0  0  0
 11 12  1  0  0  0
 12 15  1  0  0  0
 15 16  1  0  0  0
 12  7  2  0  0  0
 23 18  1  0  0  0
M  END
> <minimizedAffinity>
-8.40697

$$$$
OCNT-2314601


 25 26  0  0  0  0  0  0  0  0999 V2000
   -5.8352   26.7595    3.2698 C   0  0  0  0  0  0  0  0  0  0  0  0
   -5.8224   28.1078    2.8884 C   0  0  0  0  0  0  0  0  0  0  0  0
   -6.0677   29.1311    3.8129 C   0  0  0  0  0  0  0  0  0  0  0  0
   -6.3332   28.8336    5.1437 C   0  0  0  0  0  0  0  0  0  0  0  0
   -6.3568   27.4910    5.5341 C   0  0  0  0  0  0  0  0  0  0  0  0
   -6.1140   26.4456    4.6115 C   0  0  0  0  0  0  0  0  0  0  0  0
   -6.1685   25.1113    5.1025 N   0  0  0  0  0  0  0  0  0  0  0  0
   -5.1811   24.2111    5.4214 C   0  0  0  0  0  0  0  0  0  0  0  0
   -5.7223   23.0862    5.8342 N   0  0  0  0  0  0  0  0  0  0  0  0
   -7.0726   23.2798    5.7782 N   0  0  0  0  0  0  0  0  0  0  0  0
   -7.3589   24.4949    5.3373 N   0  0  0  0  0  0  0  0  0  0  0  0
   -6.5867   29.8020    6.1368 N   0  0  0  0  0  0  0  0  0  0  0  0
   -5.8267   30.0724    7.2651 C   0  0  0  0  0  0  0  0  0  0  0  0
   -4.7886   29.5101    7.5935 O   0  0  0  0  0  0  0  0  0  0  0  0
   -7.4191   30.3654    6.0071 H   0  0  0  0  0  0  0  0  0  0  0  0
   -6.4414   31.1943    8.0938 C   0  0  0  0  0  0  0  0  0  0  0  0
   -5.4135   31.8622    9.0114 C   0  0  0  0  0  0  0  0  0  0  0  0
   -4.4074   32.8064    8.3092 C   0  0  0  0  0  0  0  0  0  0  0  0
   -4.9619   34.2298    8.2377 C   0  0  0  0  0  0  0  0  0  0  0  0
   -3.0069   32.7172    8.9692 C   0  0  0  0  0  0  0  0  0  0  0  0
   -1.9647   31.8813    8.3636 N   0  0  0  0  0  0  0  0  0  0  0  0
   -1.6861   30.6561    9.1020 C   0  0  0  0  0  0  0  0  0  0  0  0
   -2.1298   31.6332    6.9394 C   0  0  0  0  0  0  0  0  0  0  0  0
   -4.2401   25.4581    2.0419 C   0  0  0  0  0  0  0  0  0  0  0  0
   -5.5911   25.7391    2.3953 O   0  0  0  0  0  0  0  0  0  0  0  0
 24 25  1  0  0  0
 25  1  1  0  0  0
  1  2  1  0  0  0
  2  3  2  0  0  0
  3  4  1  0  0  0
  4 12  1  0  0  0
 12 13  1  0  0  0
 13 14  2  0  0  0
 13 16  1  0  0  0
 16 17  1  0  0  0
 17 18  1  0  0  0
 18 19  1  0  0  0
 18 20  1  0  0  0
 20 21  1  0  0  0
 21 22  1  0  0  0
 21 23  1  0  0  0
  4  5  2  0  0  0
  5  6  1  0  0  0
  6  7  1  0  0  0
  7  8  1  0  0  0
  8  9  2  0  0  0
  9 10  1  0  0  0
 10 11  2  0  0  0
  6  1  2  0  0  0
 11  7  1  0  0  0
 12 15  1  0  0  0
M  END
> <minimizedAffinity>
-7.65625

$$$$
OCNT-2314602


 27 30  0  0  0  0  0  0  0  0999 V2000
   -4.7995   27.7435    5.4618 C   0  0  0  0  0  0  0  0  0  0  0  0
   -5.4381   28.7609    5.2165 O   0  0  0  0  0  0  0  0  0  0  0  0
   -3.7544   27.6239    6.3591 N   0  0  0  0  0  0  0  0  0  0  0  0
   -3.3515   26.6933    6.4196 H   0  0  0  0  0  0  0  0  0  0  0  0
   -3.1900   28.6160    7.1837 C   0  0  0  0  0  0  0  0  0  0  0  0
   -1.8359   28.4730    7.5040 C   0  0  0  0  0  0  0  0  0  0  0  0
   -1.1756   29.4055    8.3161 C   0  0  0  0  0  0  0  0  0  0  0  0
   -1.8895   30.5071    8.8213 C   0  0  0  0  0  0  0  0  0  0  0  0
   -1.5433   31.6104    9.6478 C   0  0  0  0  0  0  0  0  0  0  0  0
   -2.6699   32.3844    9.8083 C   0  0  0  0  0  0  0  0  0  0  0  0
   -3.6894   31.7899    9.1124 N   0  0  0  0  0  0  0  0  0  0  0  0
   -5.0418   32.2962    9.0348 C   0  0  0  0  0  0  0  0  0  0  0  0
   -3.2401   30.6400    8.4953 C   0  0  0  0  0  0  0  0  0  0  0  0
   -3.9103   29.7082    7.6798 C   0  0  0  0  0  0  0  0  0  0  0  0
   -3.1404   26.2312    3.0710 C   0  0  0  0  0  0  0  0  0  0  0  0
   -4.3805   25.8446    3.7817 C   0  0  0  0  0  0  0  0  0  0  0  0
   -5.0892   26.4735    4.7940 C   0  0  0  0  0  0  0  0  0  0  0  0
   -6.1800   25.7005    5.1240 N   0  0  0  0  0  0  0  0  0  0  0  0
   -6.1694   24.6176    4.3641 N   0  0  0  0  0  0  0  0  0  0  0  0
   -5.0845   24.6861    3.5670 N   0  0  0  0  0  0  0  0  0  0  0  0
   -4.8296   23.6115    2.6204 C   0  0  0  0  0  0  0  0  0  0  0  0
   -5.7788   23.6447    1.4490 C   0  0  0  0  0  0  0  0  0  0  0  0
   -5.9309   24.8069    0.6857 C   0  0  0  0  0  0  0  0  0  0  0  0
   -6.8341   24.8001   -0.3673 C   0  0  0  0  0  0  0  0  0  0  0  0
   -7.5869   23.7324   -0.7032 N   0  0  0  0  0  0  0  0  0  0  0  0
   -7.4304   22.6199    0.0435 C   0  0  0  0  0  0  0  0  0  0  0  0
   -6.5571   22.5292    1.1165 C   0  0  0  0  0  0  0  0  0  0  0  0
 15 16  1  0  0  0
 16 17  2  0  0  0
 17  1  1  0  0  0
  1  2  2  0  0  0
  1  3  1  0  0  0
  3  5  1  0  0  0
  5  6  2  0  0  0
  6  7  1  0  0  0
  7  8  2  0  0  0
  8  9  1  0  0  0
  9 10  2  0  0  0
 10 11  1  0  0  0
 11 12  1  0  0  0
 11 13  1  0  0  0
 13 14  2  0  0  0
 17 18  1  0  0  0
 18 19  2  0  0  0
 19 20  1  0  0  0
 20 21  1  0  0  0
 21 22  1  0  0  0
 22 23  2  0  0  0
 23 24  1  0  0  0
 24 25  2  0  0  0
 25 26  1  0  0  0
 26 27  2  0  0  0
 20 16  1  0  0  0
 27 22  1  0  0  0
 14  5  1  0  0  0
 13  8  1  0  0  0
  3  4  1  0  0  0
M  END
> <minimizedAffinity>
-9.49450

$$$$
OCNT-2314603


 28 31  0  0  0  0  0  0  0  0999 V2000
   -4.8825   27.0315    4.5599 C   0  0  0  0  0  0  0  0  0  0  0  0
   -5.6988   26.4860    3.5701 C   0  0  0  0  0  0  0  0  0  0  0  0
   -5.1515   25.5492    2.7135 C   0  0  0  0  0  0  0  0  0  0  0  0
   -3.8548   25.1608    2.8087 N   0  0  0  0  0  0  0  0  0  0  0  0
   -3.0660   25.7060    3.7482 C   0  0  0  0  0  0  0  0  0  0  0  0
   -1.7399   25.2991    3.8050 C   0  0  0  0  0  0  0  0  0  0  0  0
   -0.8404   25.8323    4.7301 C   0  0  0  0  0  0  0  0  0  0  0  0
   -1.2672   26.8064    5.6199 C   0  0  0  0  0  0  0  0  0  0  0  0
   -2.5944   27.2295    5.5869 C   0  0  0  0  0  0  0  0  0  0  0  0
   -3.5195   26.6746    4.6640 C   0  0  0  0  0  0  0  0  0  0  0  0
   -5.9454   24.9375    1.6382 C   0  0  0  0  0  0  0  0  0  0  0  0
   -6.1030   25.5676    0.4035 C   0  0  0  0  0  0  0  0  0  0  0  0
   -6.8729   24.9490   -0.5786 C   0  0  0  0  0  0  0  0  0  0  0  0
   -7.4661   23.7239   -0.3048 C   0  0  0  0  0  0  0  0  0  0  0  0
   -7.2662   23.1646    0.9461 C   0  0  0  0  0  0  0  0  0  0  0  0
   -6.5308   23.7427    1.9202 N   0  0  0  0  0  0  0  0  0  0  0  0
   -4.8376   29.1603    5.7007 N   0  0  0  0  0  0  0  0  0  0  0  0
   -5.5354   27.9976    5.4696 C   0  0  0  0  0  0  0  0  0  0  0  0
   -6.5943   27.7033    6.0082 O   0  0  0  0  0  0  0  0  0  0  0  0
   -3.9064   29.2665    5.3164 H   0  0  0  0  0  0  0  0  0  0  0  0
   -5.3201   30.1841    6.6141 C   0  0  0  0  0  0  0  0  0  0  0  0
   -2.8579   30.8677    6.4953 C   0  0  0  0  0  0  0  0  0  0  0  0
   -4.2734   31.2872    6.9181 C   0  0  0  0  0  0  0  0  0  0  0  0
   -4.3804   31.7154    8.3350 N   0  0  0  0  0  0  0  0  0  0  0  0
   -3.7578   30.7964    9.2879 C   0  0  0  0  0  0  0  0  0  0  0  0
   -3.9388   33.1049    8.5536 C   0  0  0  0  0  0  0  0  0  0  0  0
   -4.8103   34.2385    8.0846 C   0  0  0  0  0  0  0  0  0  0  0  0
   -4.6841   33.9533    9.5507 C   0  0  0  0  0  0  0  0  0  0  0  0
 22 23  1  0  0  0
 23 21  1  0  0  0
 21 17  1  0  0  0
 17 18  1  0  0  0
 18 19  2  0  0  0
 18  1  1  0  0  0
  1  2  2  0  0  0
  2  3  1  0  0  0
  3 11  1  0  0  0
 11 12  2  0  0  0
 12 13  1  0  0  0
 13 14  2  0  0  0
 14 15  1  0  0  0
 15 16  2  0  0  0
  3  4  2  0  0  0
  4  5  1  0  0  0
  5  6  2  0  0  0
  6  7  1  0  0  0
  7  8  2  0  0  0
  8  9  1  0  0  0
  9 10  2  0  0  0
 23 24  1  0  0  0
 24 25  1  0  0  0
 24 26  1  0  0  0
 26 27  1  0  0  0
 27 28  1  0  0  0
 10  1  1  0  0  0
 28 26  1  0  0  0
 16 11  1  0  0  0
 10  5  1  0  0  0
 17 20  1  0  0  0
M  END
> <minimizedAffinity>
-9.59576

$$$$
OCNT-2314607


 25 27  0  0  0  0  0  0  0  0999 V2000
   -5.6349   25.4238    3.9239 N   0  0  0  0  0  0  0  0  0  0  0  0
   -6.4135   28.4419    5.6908 C   0  0  0  0  0  0  0  0  0  0  0  0
   -6.3780   29.4256    4.7747 N   0  0  0  0  0  0  0  0  0  0  0  0
   -6.0890   29.0392    3.5255 C   0  0  0  0  0  0  0  0  0  0  0  0
   -5.8344   27.7326    3.1679 C   0  0  0  0  0  0  0  0  0  0  0  0
   -5.8908   26.7697    4.1594 C   0  0  0  0  0  0  0  0  0  0  0  0
   -6.1808   27.1407    5.4207 N   0  0  0  0  0  0  0  0  0  0  0  0
   -6.7204   28.8241    7.1249 C   0  0  0  0  0  0  0  0  0  0  0  0
   -5.8823   29.0712    9.3349 C   0  0  0  0  0  0  0  0  0  0  0  0
   -5.5591   28.9869    7.9533 O   0  0  0  0  0  0  0  0  0  0  0  0
   -5.4118   24.4868    5.0337 C   0  0  0  0  0  0  0  0  0  0  0  0
   -6.5888   23.6512    5.4588 C   0  0  0  0  0  0  0  0  0  0  0  0
   -7.8465   23.8415    5.1032 N   0  0  0  0  0  0  0  0  0  0  0  0
   -8.5725   22.8541    5.7241 C   0  0  0  0  0  0  0  0  0  0  0  0
  -10.0381   22.7744    5.5469 C   0  0  0  0  0  0  0  0  0  0  0  0
   -7.7403   22.0475    6.4679 C   0  0  0  0  0  0  0  0  0  0  0  0
   -6.4861   22.5623    6.2934 N   0  0  0  0  0  0  0  0  0  0  0  0
   -5.2798   22.0588    6.9050 C   0  0  0  0  0  0  0  0  0  0  0  0
   -5.0873   25.0703    2.5989 C   0  0  0  0  0  0  0  0  0  0  0  0
   -6.1437   24.4721    1.6448 C   0  0  0  0  0  0  0  0  0  0  0  0
   -5.9993   22.9462    1.4824 C   0  0  0  0  0  0  0  0  0  0  0  0
   -6.6024   22.4011    0.1839 C   0  0  0  0  0  0  0  0  0  0  0  0
   -7.7122   23.2911   -0.3539 C   0  0  0  0  0  0  0  0  0  0  0  0
   -7.2069   24.7024   -0.6525 C   0  0  0  0  0  0  0  0  0  0  0  0
   -6.0749   25.1573    0.2730 C   0  0  0  0  0  0  0  0  0  0  0  0
  9 10  1  0  0  0
 10  8  1  0  0  0
  8  2  1  0  0  0
  2  3  2  0  0  0
  3  4  1  0  0  0
  4  5  2  0  0  0
  5  6  1  0  0  0
  6  1  1  0  0  0
  1 11  1  0  0  0
 11 12  1  0  0  0
 12 13  2  0  0  0
 13 14  1  0  0  0
 14 15  1  0  0  0
 14 16  2  0  0  0
 16 17  1  0  0  0
 17 18  1  0  0  0
  1 19  1  0  0  0
 19 20  1  0  0  0
 20 21  1  0  0  0
 21 22  1  0  0  0
 22 23  1  0  0  0
 23 24  1  0  0  0
 24 25  1  0  0  0
  6  7  2  0  0  0
  7  2  1  0  0  0
 17 12  1  0  0  0
 25 20  1  0  0  0
M  END
> <minimizedAffinity>
-8.48066

$$$$
OCNT-2314611


 22 25  0  0  0  0  0  0  0  0999 V2000
   -3.6663   26.5611    3.0809 O   0  0  0  0  0  0  0  0  0  0  0  0
   -4.4262   25.9611    3.8339 C   0  0  0  0  0  0  0  0  0  0  0  0
   -4.8606   24.6551    3.6177 N   0  0  0  0  0  0  0  0  0  0  0  0
   -4.9202   26.6507    5.0558 C   0  0  0  0  0  0  0  0  0  0  0  0
   -4.7006   28.1455    5.2155 C   0  0  0  0  0  0  0  0  0  0  0  0
   -4.7169   28.8041    6.5532 C   0  0  0  0  0  0  0  0  0  0  0  0
   -5.9549   28.3102    7.1758 N   0  0  0  0  0  0  0  0  0  0  0  0
   -6.9189   28.0060    6.1105 C   0  0  0  0  0  0  0  0  0  0  0  0
   -6.0639   27.6452    4.9429 C   0  0  0  0  0  0  0  0  0  0  0  0
   -6.3327   29.0053    7.8146 H   0  0  0  0  0  0  0  0  0  0  0  0
   -4.4081   23.9826    2.4006 C   0  0  0  0  0  0  0  0  0  0  0  0
   -5.4659   23.8633    1.3247 C   0  0  0  0  0  0  0  0  0  0  0  0
   -5.8332   25.0132    0.5998 C   0  0  0  0  0  0  0  0  0  0  0  0
   -6.8036   24.9525   -0.4021 C   0  0  0  0  0  0  0  0  0  0  0  0
   -7.4271   23.7436   -0.6946 C   0  0  0  0  0  0  0  0  0  0  0  0
   -7.0813   22.5958    0.0171 C   0  0  0  0  0  0  0  0  0  0  0  0
   -6.1090   22.6522    1.0220 C   0  0  0  0  0  0  0  0  0  0  0  0
   -5.7499   21.1845    1.8586 Cl  0  0  0  0  0  0  0  0  0  0  0  0
   -5.5587   23.8790    4.6394 C   0  0  0  0  0  0  0  0  0  0  0  0
   -7.0551   24.0319    4.6094 C   0  0  0  0  0  0  0  0  0  0  0  0
   -7.9314   22.8573    4.2420 C   0  0  0  0  0  0  0  0  0  0  0  0
   -8.0050   23.4344    5.6253 C   0  0  0  0  0  0  0  0  0  0  0  0
  1  2  2  0  0  0
  2  4  1  0  0  0
  4  5  1  0  0  0
  5  6  1  0  0  0
  6  7  1  0  0  0
  7  8  1  0  0  0
  8  9  1  0  0  0
  2  3  1  0  0  0
  3 11  1  0  0  0
 11 12  1  0  0  0
 12 13  2  0  0  0
 13 14  1  0  0  0
 14 15  2  0  0  0
 15 16  1  0  0  0
 16 17  2  0  0  0
 17 18  1  0  0  0
  3 19  1  0  0  0
 19 20  1  0  0  0
 20 21  1  0  0  0
 21 22  1  0  0  0
  9  4  1  0  0  0
 17 12  1  0  0  0
 22 20  1  0  0  0
  9  5  1  0  0  0
  7 10  1  0  0  0
M  END
> <minimizedAffinity>
-8.03679

$$$$
OCNT-2314615


 26 28  0  0  0  0  0  0  0  0999 V2000
   -1.3786   25.8757    4.9126 C   0  0  0  0  0  0  0  0  0  0  0  0
   -0.1888   26.3228    4.0664 C   0  0  0  0  0  0  0  0  0  0  0  0
   -4.3110   25.3661    2.9045 C   0  0  0  0  0  0  0  0  0  0  0  0
   -3.0925   24.8829    3.3316 C   0  0  0  0  0  0  0  0  0  0  0  0
   -2.6219   25.8575    4.1608 N   0  0  0  0  0  0  0  0  0  0  0  0
   -3.4844   26.8894    4.2448 N   0  0  0  0  0  0  0  0  0  0  0  0
   -4.5255   26.5958    3.4803 N   0  0  0  0  0  0  0  0  0  0  0  0
   -8.0145   22.7202   -0.6579 C   0  0  0  0  0  0  0  0  0  0  0  0
   -7.0758   23.4231    0.2772 C   0  0  0  0  0  0  0  0  0  0  0  0
   -6.5241   22.7459    1.3683 C   0  0  0  0  0  0  0  0  0  0  0  0
   -5.6240   23.3920    2.2219 C   0  0  0  0  0  0  0  0  0  0  0  0
   -5.2487   24.7243    1.9988 C   0  0  0  0  0  0  0  0  0  0  0  0
   -5.7933   25.3930    0.8941 C   0  0  0  0  0  0  0  0  0  0  0  0
   -6.6937   24.7469    0.0390 C   0  0  0  0  0  0  0  0  0  0  0  0
   -1.5044   26.7331    6.1709 C   0  0  0  0  0  0  0  0  0  0  0  0
   -2.0876   26.2813    7.1554 O   0  0  0  0  0  0  0  0  0  0  0  0
   -0.8732   27.9651    6.1013 N   0  0  0  0  0  0  0  0  0  0  0  0
   -0.5332   28.2424    5.1790 H   0  0  0  0  0  0  0  0  0  0  0  0
   -0.7577   28.9382    7.1143 C   0  0  0  0  0  0  0  0  0  0  0  0
    0.2691   28.9651    8.0599 C   0  0  0  0  0  0  0  0  0  0  0  0
    0.3157   29.9704    9.0311 C   0  0  0  0  0  0  0  0  0  0  0  0
   -0.6642   30.9607    9.0639 C   0  0  0  0  0  0  0  0  0  0  0  0
   -1.6950   30.9467    8.1222 C   0  0  0  0  0  0  0  0  0  0  0  0
   -1.7391   29.9379    7.1510 C   0  0  0  0  0  0  0  0  0  0  0  0
   -2.7047   31.9638    8.1473 C   0  0  0  0  0  0  0  0  0  0  0  0
   -3.5221   32.7872    8.1712 N   0  0  0  0  0  0  0  0  0  0  0  0
  8  9  1  0  0  0
  9 10  1  0  0  0
 10 11  2  0  0  0
 11 12  1  0  0  0
 12  3  1  0  0  0
  3  4  2  0  0  0
  4  5  1  0  0  0
  5  1  1  0  0  0
  1  2  1  0  0  0
  1 15  1  0  0  0
 15 16  2  0  0  0
 15 17  1  0  0  0
 17 19  1  0  0  0
 19 20  2  0  0  0
 20 21  1  0  0  0
 21 22  2  0  0  0
 22 23  1  0  0  0
 23 25  1  0  0  0
 25 26  3  0  0  0
 23 24  2  0  0  0
  5  6  1  0  0  0
  6  7  2  0  0  0
 12 13  2  0  0  0
 13 14  1  0  0  0
 14  9  2  0  0  0
  7  3  1  0  0  0
 24 19  1  0  0  0
 17 18  1  0  0  0
M  END
> <minimizedAffinity>
-9.43590

$$$$
OCNT-2314616


 26 27  0  0  0  0  0  0  0  0999 V2000
   -6.2315   30.6232    7.2665 N   0  0  0  0  0  0  0  0  0  0  0  0
   -5.5416   31.2844    6.8908 H   0  0  0  0  0  0  0  0  0  0  0  0
   -5.8999   30.0894    8.8113 S   0  0  0  0  0  0  0  0  0  0  0  0
   -6.4357   28.7521    8.9210 O   0  0  0  0  0  0  0  0  0  0  0  0
   -6.2547   31.1324    9.7476 O   0  0  0  0  0  0  0  0  0  0  0  0
    0.0960   29.9004    8.7971 C   0  0  0  0  0  0  0  0  0  0  0  0
   -1.4065   29.8806    8.7571 C   0  0  0  0  0  0  0  0  0  0  0  0
   -2.0321   30.8564    9.4704 N   0  0  0  0  0  0  0  0  0  0  0  0
   -3.3874   30.8811    9.4614 C   0  0  0  0  0  0  0  0  0  0  0  0
   -4.1484   29.9545    8.7780 C   0  0  0  0  0  0  0  0  0  0  0  0
   -3.5097   28.9619    8.0378 C   0  0  0  0  0  0  0  0  0  0  0  0
   -2.1124   28.9178    8.0278 C   0  0  0  0  0  0  0  0  0  0  0  0
   -1.4403   27.8971    7.2827 C   0  0  0  0  0  0  0  0  0  0  0  0
   -0.8998   27.0630    6.6843 N   0  0  0  0  0  0  0  0  0  0  0  0
   -6.7519   29.6724    6.2705 C   0  0  0  0  0  0  0  0  0  0  0  0
   -5.7658   29.6147    5.0848 C   0  0  0  0  0  0  0  0  0  0  0  0
   -5.5256   28.2349    4.6070 N   0  0  0  0  0  0  0  0  0  0  0  0
   -5.8262   28.1410    3.1695 C   0  0  0  0  0  0  0  0  0  0  0  0
   -5.8163   26.7330    2.6393 C   0  0  0  0  0  0  0  0  0  0  0  0
   -5.8529   25.6241    3.4077 C   0  0  0  0  0  0  0  0  0  0  0  0
   -5.9408   25.8136    4.9141 C   0  0  0  0  0  0  0  0  0  0  0  0
   -6.3263   27.2426    5.3397 C   0  0  0  0  0  0  0  0  0  0  0  0
   -5.8068   24.1800    2.8683 C   0  0  0  0  0  0  0  0  0  0  0  0
   -6.7037   23.2001    3.6609 C   0  0  0  0  0  0  0  0  0  0  0  0
   -4.3632   23.6431    2.9435 C   0  0  0  0  0  0  0  0  0  0  0  0
   -6.2833   24.1413    1.4013 C   0  0  0  0  0  0  0  0  0  0  0  0
  6  7  1  0  0  0
  7  8  1  0  0  0
  8  9  2  0  0  0
  9 10  1  0  0  0
 10  3  1  0  0  0
  3  4  2  0  0  0
  3  5  2  0  0  0
  3  1  1  0  0  0
  1 15  1  0  0  0
 15 16  1  0  0  0
 16 17  1  0  0  0
 17 18  1  0  0  0
 18 19  1  0  0  0
 19 20  2  0  0  0
 20 23  1  0  0  0
 23 24  1  0  0  0
 23 25  1  0  0  0
 23 26  1  0  0  0
 20 21  1  0  0  0
 21 22  1  0  0  0
 10 11  2  0  0  0
 11 12  1  0  0  0
 12 13  1  0  0  0
 13 14  3  0  0  0
 12  7  2  0  0  0
 22 17  1  0  0  0
  1  2  1  0  0  0
M  END
> <minimizedAffinity>
-8.36325

$$$$
OCNT-2314618


 28 31  0  0  0  0  0  0  0  0999 V2000
   -4.7368   32.1750    8.2050 N   0  0  0  0  0  0  0  0  0  0  0  0
   -3.9580   31.8944    6.9908 C   0  0  0  0  0  0  0  0  0  0  0  0
   -2.4493   32.1658    7.1518 C   0  0  0  0  0  0  0  0  0  0  0  0
   -1.8889   31.3305    8.2393 N   0  0  0  0  0  0  0  0  0  0  0  0
   -2.6652   31.4125    9.5020 C   0  0  0  0  0  0  0  0  0  0  0  0
   -3.9125   32.3256    9.4084 C   0  0  0  0  0  0  0  0  0  0  0  0
   -1.1872   30.1494    7.9163 C   0  0  0  0  0  0  0  0  0  0  0  0
   -1.7970   29.1365    7.2540 C   0  0  0  0  0  0  0  0  0  0  0  0
   -3.0932   28.8293    6.7399 C   0  0  0  0  0  0  0  0  0  0  0  0
   -2.9745   27.6072    6.1960 C   0  0  0  0  0  0  0  0  0  0  0  0
   -1.7126   27.0353    6.2915 N   0  0  0  0  0  0  0  0  0  0  0  0
   -1.0047   27.9281    6.9291 C   0  0  0  0  0  0  0  0  0  0  0  0
    0.2911   27.9019    7.3173 N   0  0  0  0  0  0  0  0  0  0  0  0
    0.8066   28.9591    7.9985 C   0  0  0  0  0  0  0  0  0  0  0  0
    0.1588   30.0417    8.3051 N   0  0  0  0  0  0  0  0  0  0  0  0
    0.8319   27.0736    7.1221 H   0  0  0  0  0  0  0  0  0  0  0  0
   -5.9685   31.3921    8.3498 C   0  0  0  0  0  0  0  0  0  0  0  0
   -6.0710   29.9682    7.7319 C   0  0  0  0  0  0  0  0  0  0  0  0
   -5.4844   28.9421    9.8228 C   0  0  0  0  0  0  0  0  0  0  0  0
   -6.4551   29.0681    8.7922 O   0  0  0  0  0  0  0  0  0  0  0  0
   -7.0007   29.8454    6.5028 C   0  0  0  0  0  0  0  0  0  0  0  0
   -6.5527   28.9759    5.3433 C   0  0  0  0  0  0  0  0  0  0  0  0
   -6.4969   27.5808    5.5137 C   0  0  0  0  0  0  0  0  0  0  0  0
   -6.1167   26.7456    4.4622 C   0  0  0  0  0  0  0  0  0  0  0  0
   -5.8048   27.2999    3.2287 C   0  0  0  0  0  0  0  0  0  0  0  0
   -5.4403   26.5000    2.2176 F   0  0  0  0  0  0  0  0  0  0  0  0
   -5.8724   28.6717    3.0274 C   0  0  0  0  0  0  0  0  0  0  0  0
   -6.2533   29.5074    4.0802 C   0  0  0  0  0  0  0  0  0  0  0  0
 19 20  1  0  0  0
 20 18  1  0  0  0
 18 21  1  0  0  0
 21 22  1  0  0  0
 22 23  1  0  0  0
 23 24  2  0  0  0
 24 25  1  0  0  0
 25 26  1  0  0  0
 25 27  2  0  0  0
 27 28  1  0  0  0
 18 17  1  0  0  0
 17  1  1  0  0  0
  1  2  1  0  0  0
  2  3  1  0  0  0
  3  4  1  0  0  0
  4  7  1  0  0  0
  7  8  2  0  0  0
  8  9  1  0  0  0
  9 10  2  0  0  0
 10 11  1  0  0  0
 11 12  2  0  0  0
 12 13  1  0  0  0
 13 14  1  0  0  0
 14 15  2  0  0  0
  4  5  1  0  0  0
  5  6  1  0  0  0
 28 22  2  0  0  0
  6  1  1  0  0  0
 15  7  1  0  0  0
 12  8  1  0  0  0
 13 16  1  0  0  0
M  END
> <minimizedAffinity>
-9.35362

$$$$
OCNT-2314625


 26 29  0  0  0  0  0  0  0  0999 V2000
   -3.6681   26.5437    4.9549 N   0  0  0  0  0  0  0  0  0  0  0  0
   -3.1501   26.0393    3.7786 C   0  0  0  0  0  0  0  0  0  0  0  0
   -1.9977   26.1848    3.3861 O   0  0  0  0  0  0  0  0  0  0  0  0
   -4.6394   26.3454    5.1392 H   0  0  0  0  0  0  0  0  0  0  0  0
   -4.0912   31.4609    6.2840 C   0  0  0  0  0  0  0  0  0  0  0  0
   -3.4117   30.7633    7.3701 N   0  0  0  0  0  0  0  0  0  0  0  0
   -2.4823   31.5782    8.1642 C   0  0  0  0  0  0  0  0  0  0  0  0
   -1.9550   30.7612    9.3366 C   0  0  0  0  0  0  0  0  0  0  0  0
   -1.1893   29.6431    8.8800 O   0  0  0  0  0  0  0  0  0  0  0  0
   -1.8399   28.9430    7.8877 C   0  0  0  0  0  0  0  0  0  0  0  0
   -1.3330   27.6656    7.6454 C   0  0  0  0  0  0  0  0  0  0  0  0
   -1.9121   26.8497    6.6741 C   0  0  0  0  0  0  0  0  0  0  0  0
   -3.0044   27.3060    5.9414 C   0  0  0  0  0  0  0  0  0  0  0  0
   -3.4962   28.6028    6.1834 C   0  0  0  0  0  0  0  0  0  0  0  0
   -2.9176   29.4619    7.1358 C   0  0  0  0  0  0  0  0  0  0  0  0
   -4.1004   25.2838    2.9783 C   0  0  0  0  0  0  0  0  0  0  0  0
   -5.0814   25.6514    2.0714 C   0  0  0  0  0  0  0  0  0  0  0  0
   -5.7134   24.4706    1.5865 C   0  0  0  0  0  0  0  0  0  0  0  0
   -6.7522   24.2234    0.6703 C   0  0  0  0  0  0  0  0  0  0  0  0
   -7.1269   22.9020    0.4269 C   0  0  0  0  0  0  0  0  0  0  0  0
   -8.1151   22.6557   -0.4444 F   0  0  0  0  0  0  0  0  0  0  0  0
   -6.5034   21.8356    1.0630 C   0  0  0  0  0  0  0  0  0  0  0  0
   -5.4699   22.0596    1.9766 C   0  0  0  0  0  0  0  0  0  0  0  0
   -5.0997   23.3891    2.2152 C   0  0  0  0  0  0  0  0  0  0  0  0
   -4.1357   23.9057    3.0463 N   0  0  0  0  0  0  0  0  0  0  0  0
   -3.5199   23.3642    3.6400 H   0  0  0  0  0  0  0  0  0  0  0  0
  5  6  1  0  0  0
  6  7  1  0  0  0
  7  8  1  0  0  0
  8  9  1  0  0  0
  9 10  1  0  0  0
 10 11  1  0  0  0
 11 12  2  0  0  0
 12 13  1  0  0  0
 13  1  1  0  0  0
  1  2  1  0  0  0
  2  3  2  0  0  0
  2 16  1  0  0  0
 16 17  2  0  0  0
 17 18  1  0  0  0
 18 19  2  0  0  0
 19 20  1  0  0  0
 20 21  1  0  0  0
 20 22  2  0  0  0
 22 23  1  0  0  0
 23 24  2  0  0  0
 24 25  1  0  0  0
 13 14  2  0  0  0
 14 15  1  0  0  0
 15  6  1  0  0  0
 15 10  2  0  0  0
 25 16  1  0  0  0
 24 18  1  0  0  0
  1  4  1  0  0  0
 25 26  1  0  0  0
M  END
> <minimizedAffinity>
-9.87381

$$$$
OCNT-2314630


 24 27  0  0  0  0  0  0  0  0999 V2000
   -4.3767   28.2487    6.3651 C   0  0  0  0  0  0  0  0  0  0  0  0
   -4.7610   27.5285    5.2851 N   0  0  0  0  0  0  0  0  0  0  0  0
   -3.8885   26.7268    4.6380 C   0  0  0  0  0  0  0  0  0  0  0  0
   -2.5970   26.5630    4.9661 N   0  0  0  0  0  0  0  0  0  0  0  0
   -2.2235   27.3097    6.0145 C   0  0  0  0  0  0  0  0  0  0  0  0
   -3.0216   28.1657    6.7540 C   0  0  0  0  0  0  0  0  0  0  0  0
   -2.2431   28.8216    7.7713 C   0  0  0  0  0  0  0  0  0  0  0  0
   -0.9264   28.4176    7.7828 C   0  0  0  0  0  0  0  0  0  0  0  0
   -0.6090   27.2623    6.5649 S   0  0  0  0  0  0  0  0  0  0  0  0
   -5.5228   32.7656    7.9911 C   0  0  0  0  0  0  0  0  0  0  0  0
   -5.9570   31.2885    7.9797 C   0  0  0  0  0  0  0  0  0  0  0  0
   -6.0549   30.7976    9.4360 C   0  0  0  0  0  0  0  0  0  0  0  0
   -4.8749   30.4584    7.2082 C   0  0  0  0  0  0  0  0  0  0  0  0
   -5.3117   29.0619    7.0163 N   0  0  0  0  0  0  0  0  0  0  0  0
   -6.7055   28.8974    6.5606 C   0  0  0  0  0  0  0  0  0  0  0  0
   -7.3968   30.2516    6.2868 C   0  0  0  0  0  0  0  0  0  0  0  0
   -7.3284   31.2005    7.4081 N   0  0  0  0  0  0  0  0  0  0  0  0
   -7.6421   32.1147    7.0866 H   0  0  0  0  0  0  0  0  0  0  0  0
   -4.3955   25.9560    3.4685 C   0  0  0  0  0  0  0  0  0  0  0  0
   -5.4413   26.4319    2.6698 C   0  0  0  0  0  0  0  0  0  0  0  0
   -5.8839   25.6763    1.5847 C   0  0  0  0  0  0  0  0  0  0  0  0
   -5.2775   24.4589    1.3123 C   0  0  0  0  0  0  0  0  0  0  0  0
   -4.2494   24.0456    2.1390 C   0  0  0  0  0  0  0  0  0  0  0  0
   -3.8005   24.7569    3.1957 N   0  0  0  0  0  0  0  0  0  0  0  0
 10 11  1  0  0  0
 11 12  1  0  0  0
 11 13  1  0  0  0
 13 14  1  0  0  0
 14  1  1  0  0  0
  1  2  1  0  0  0
  2  3  2  0  0  0
  3 19  1  0  0  0
 19 20  2  0  0  0
 20 21  1  0  0  0
 21 22  2  0  0  0
 22 23  1  0  0  0
 23 24  2  0  0  0
  3  4  1  0  0  0
  4  5  2  0  0  0
  5  6  1  0  0  0
  6  7  1  0  0  0
  7  8  2  0  0  0
  8  9  1  0  0  0
 14 15  1  0  0  0
 15 16  1  0  0  0
 16 17  1  0  0  0
 17 11  1  0  0  0
  6  1  2  0  0  0
 24 19  1  0  0  0
  9  5  1  0  0  0
 17 18  1  0  0  0
M  END
> <minimizedAffinity>
-8.62024

$$$$
OCNT-2314632


 22 24  0  0  0  0  0  0  0  0999 V2000
   -1.8716   30.2243    7.8284 C   0  0  0  0  0  0  0  0  0  0  0  0
   -2.3812   29.3728    6.6466 C   0  0  0  0  0  0  0  0  0  0  0  0
   -3.5826   29.1049    7.4286 N   0  0  0  0  0  0  0  0  0  0  0  0
   -4.9081   29.1866    7.0540 C   0  0  0  0  0  0  0  0  0  0  0  0
   -5.7720   29.5428    7.8552 O   0  0  0  0  0  0  0  0  0  0  0  0
   -3.0250   29.6409    8.6659 C   0  0  0  0  0  0  0  0  0  0  0  0
   -5.2658   28.8600    5.6861 C   0  0  0  0  0  0  0  0  0  0  0  0
   -5.1543   27.6720    4.9831 C   0  0  0  0  0  0  0  0  0  0  0  0
   -4.6767   26.4311    5.3205 N   0  0  0  0  0  0  0  0  0  0  0  0
   -4.7420   25.5168    4.3988 C   0  0  0  0  0  0  0  0  0  0  0  0
   -5.2797   25.6875    3.0163 C   0  0  0  0  0  0  0  0  0  0  0  0
   -5.2699   24.5253    2.0893 C   0  0  0  0  0  0  0  0  0  0  0  0
   -5.7384   26.9191    2.7476 C   0  0  0  0  0  0  0  0  0  0  0  0
   -5.6917   27.9212    3.7117 N   0  0  0  0  0  0  0  0  0  0  0  0
   -6.1321   29.1935    3.5858 N   0  0  0  0  0  0  0  0  0  0  0  0
   -5.8996   29.7377    4.7791 C   0  0  0  0  0  0  0  0  0  0  0  0
   -0.5092   29.7459    8.3001 C   0  0  0  0  0  0  0  0  0  0  0  0
   -0.0346   30.5283    9.2986 F   0  0  0  0  0  0  0  0  0  0  0  0
    0.4093   29.7528    7.3038 F   0  0  0  0  0  0  0  0  0  0  0  0
   -0.5778   28.4750    8.7687 F   0  0  0  0  0  0  0  0  0  0  0  0
   -2.6431   32.4808    8.4909 C   0  0  0  0  0  0  0  0  0  0  0  0
   -1.9275   31.6693    7.5680 O   0  0  0  0  0  0  0  0  0  0  0  0
 21 22  1  0  0  0
 22  1  1  0  0  0
  1 17  1  0  0  0
 17 18  1  0  0  0
 17 19  1  0  0  0
 17 20  1  0  0  0
  1  2  1  0  0  0
  2  3  1  0  0  0
  3  4  1  0  0  0
  4  5  2  0  0  0
  4  7  1  0  0  0
  7  8  2  0  0  0
  8  9  1  0  0  0
  9 10  2  0  0  0
 10 11  1  0  0  0
 11 12  1  0  0  0
 11 13  2  0  0  0
 13 14  1  0  0  0
 14 15  1  0  0  0
 15 16  2  0  0  0
  3  6  1  0  0  0
  6  1  1  0  0  0
 16  7  1  0  0  0
 14  8  1  0  0  0
M  END
> <minimizedAffinity>
-7.90369

$$$$
OCNT-2314637


 25 28  0  0  0  0  0  0  0  0999 V2000
   -3.0383   29.1645    7.5661 C   0  0  0  0  0  0  0  0  0  0  0  0
   -3.4517   28.2522    6.6661 N   0  0  0  0  0  0  0  0  0  0  0  0
   -2.5250   27.4737    6.0540 C   0  0  0  0  0  0  0  0  0  0  0  0
   -1.1963   27.5425    6.2682 N   0  0  0  0  0  0  0  0  0  0  0  0
   -0.8290   28.4608    7.1636 C   0  0  0  0  0  0  0  0  0  0  0  0
   -1.6991   29.2886    7.8415 C   0  0  0  0  0  0  0  0  0  0  0  0
   -0.9610   30.2589    8.6995 C   0  0  0  0  0  0  0  0  0  0  0  0
    0.4124   29.5774    8.8033 C   0  0  0  0  0  0  0  0  0  0  0  0
    0.5982   28.7772    7.5082 C   0  0  0  0  0  0  0  0  0  0  0  0
   -5.4969   31.9912    8.0619 C   0  0  0  0  0  0  0  0  0  0  0  0
   -4.2333   31.2644    7.4906 C   0  0  0  0  0  0  0  0  0  0  0  0
   -3.9681   29.9940    8.2136 N   0  0  0  0  0  0  0  0  0  0  0  0
   -5.2158   29.2727    8.5304 C   0  0  0  0  0  0  0  0  0  0  0  0
   -6.0755   30.1313    9.4926 C   0  0  0  0  0  0  0  0  0  0  0  0
   -5.8000   31.5861    9.4581 N   0  0  0  0  0  0  0  0  0  0  0  0
   -4.9296   31.7194    9.9803 H   0  0  0  0  0  0  0  0  0  0  0  0
   -5.3511   33.5231    8.0183 C   0  0  0  0  0  0  0  0  0  0  0  0
   -4.9422   35.2348    9.8240 C   0  0  0  0  0  0  0  0  0  0  0  0
   -4.3612   34.0559    9.0585 C   0  0  0  0  0  0  0  0  0  0  0  0
   -3.0085   26.4840    5.0809 C   0  0  0  0  0  0  0  0  0  0  0  0
   -2.2334   26.0473    3.9946 C   0  0  0  0  0  0  0  0  0  0  0  0
   -2.7312   25.1057    3.0937 C   0  0  0  0  0  0  0  0  0  0  0  0
   -4.0073   24.6137    3.2984 C   0  0  0  0  0  0  0  0  0  0  0  0
   -4.7966   24.9949    4.3221 N   0  0  0  0  0  0  0  0  0  0  0  0
   -4.2788   25.9142    5.1798 C   0  0  0  0  0  0  0  0  0  0  0  0
 18 19  1  0  0  0
 19 17  1  0  0  0
 17 10  1  0  0  0
 10 11  1  0  0  0
 11 12  1  0  0  0
 12  1  1  0  0  0
  1  2  1  0  0  0
  2  3  2  0  0  0
  3 20  1  0  0  0
 20 21  1  0  0  0
 21 22  2  0  0  0
 22 23  1  0  0  0
 23 24  2  0  0  0
 24 25  1  0  0  0
  3  4  1  0  0  0
  4  5  2  0  0  0
  5  6  1  0  0  0
  6  7  1  0  0  0
  7  8  1  0  0  0
  8  9  1  0  0  0
 12 13  1  0  0  0
 13 14  1  0  0  0
 14 15  1  0  0  0
 15 10  1  0  0  0
  6  1  2  0  0  0
 25 20  2  0  0  0
  9  5  1  0  0  0
 15 16  1  0  0  0
M  END
> <minimizedAffinity>
-8.63722

$$$$
OCNT-2314639


 25 27  0  0  0  0  0  0  0  0999 V2000
   -5.3130   30.2937    7.2350 N   0  0  0  0  0  0  0  0  0  0  0  0
   -4.7445   29.7834    8.3815 C   0  0  0  0  0  0  0  0  0  0  0  0
   -5.2952   28.9700    9.1143 O   0  0  0  0  0  0  0  0  0  0  0  0
   -4.7271   30.7633    6.5599 H   0  0  0  0  0  0  0  0  0  0  0  0
   -3.3654   30.2473    8.6998 C   0  0  0  0  0  0  0  0  0  0  0  0
   -3.2179   31.4031    9.4812 C   0  0  0  0  0  0  0  0  0  0  0  0
   -1.9477   31.8856    9.8053 C   0  0  0  0  0  0  0  0  0  0  0  0
   -0.8117   31.2208    9.3445 C   0  0  0  0  0  0  0  0  0  0  0  0
   -0.9583   30.0745    8.5513 C   0  0  0  0  0  0  0  0  0  0  0  0
   -2.2300   29.5837    8.2205 C   0  0  0  0  0  0  0  0  0  0  0  0
    0.2357   29.3774    8.0574 N   0  0  0  0  0  0  0  0  0  0  0  0
    1.2212   29.3276    8.8072 O   0  0  0  0  0  0  0  0  0  0  0  0
    0.1893   28.8858    6.9213 O   0  0  0  0  0  0  0  0  0  0  0  0
   -6.5777   29.7956    6.7376 C   0  0  0  0  0  0  0  0  0  0  0  0
   -5.5840   23.9060    2.1334 C   0  0  0  0  0  0  0  0  0  0  0  0
   -5.7659   25.1531    2.9142 C   0  0  0  0  0  0  0  0  0  0  0  0
   -6.0027   25.3526    4.2588 C   0  0  0  0  0  0  0  0  0  0  0  0
   -6.0989   26.7528    4.4863 C   0  0  0  0  0  0  0  0  0  0  0  0
   -6.3254   27.5461    5.6272 C   0  0  0  0  0  0  0  0  0  0  0  0
   -6.3647   28.9479    5.5091 C   0  0  0  0  0  0  0  0  0  0  0  0
   -6.1652   29.5426    4.2564 C   0  0  0  0  0  0  0  0  0  0  0  0
   -5.9400   28.7727    3.1093 C   0  0  0  0  0  0  0  0  0  0  0  0
   -5.9129   27.3820    3.2574 C   0  0  0  0  0  0  0  0  0  0  0  0
   -5.7158   26.3915    2.3221 N   0  0  0  0  0  0  0  0  0  0  0  0
   -5.5571   26.5599    1.3385 H   0  0  0  0  0  0  0  0  0  0  0  0
 15 16  1  0  0  0
 16 17  2  0  0  0
 17 18  1  0  0  0
 18 19  2  0  0  0
 19 20  1  0  0  0
 20 14  1  0  0  0
 14  1  1  0  0  0
  1  2  1  0  0  0
  2  3  2  0  0  0
  2  5  1  0  0  0
  5  6  1  0  0  0
  6  7  2  0  0  0
  7  8  1  0  0  0
  8  9  2  0  0  0
  9 11  1  0  0  0
 11 12  2  0  0  0
 11 13  1  0  0  0
  9 10  1  0  0  0
 20 21  2  0  0  0
 21 22  1  0  0  0
 22 23  2  0  0  0
 23 24  1  0  0  0
 24 16  1  0  0  0
 23 18  1  0  0  0
 10  5  2  0  0  0
  1  4  1  0  0  0
 24 25  1  0  0  0
M  CHG 1  11   1
M  CHG 1  13  -1
M  END
> <minimizedAffinity>
-9.82777

$$$$
OCNT-2314641


 27 30  0  0  0  0  0  0  0  0999 V2000
   -6.1847   27.6641    3.4878 O   0  0  0  0  0  0  0  0  0  0  0  0
   -5.4937   26.6924    3.7803 C   0  0  0  0  0  0  0  0  0  0  0  0
   -4.6710   26.6810    4.8804 N   0  0  0  0  0  0  0  0  0  0  0  0
   -4.0167   25.9152    4.9872 H   0  0  0  0  0  0  0  0  0  0  0  0
   -5.5383   25.4586    2.9352 C   0  0  0  0  0  0  0  0  0  0  0  0
   -5.7718   25.6348    1.5606 C   0  0  0  0  0  0  0  0  0  0  0  0
   -5.8368   24.5380    0.6969 C   0  0  0  0  0  0  0  0  0  0  0  0
   -5.6718   23.2478    1.1948 C   0  0  0  0  0  0  0  0  0  0  0  0
   -5.4295   23.0542    2.5533 C   0  0  0  0  0  0  0  0  0  0  0  0
   -5.3407   24.1552    3.4173 C   0  0  0  0  0  0  0  0  0  0  0  0
   -5.1229   23.9161    4.7543 O   0  0  0  0  0  0  0  0  0  0  0  0
   -6.1744   23.4264    5.5021 C   0  0  0  0  0  0  0  0  0  0  0  0
   -5.8348   22.4590    6.4513 C   0  0  0  0  0  0  0  0  0  0  0  0
   -6.8247   21.8702    7.2390 C   0  0  0  0  0  0  0  0  0  0  0  0
   -8.1582   22.2400    7.0716 C   0  0  0  0  0  0  0  0  0  0  0  0
   -8.5026   23.1930    6.1134 C   0  0  0  0  0  0  0  0  0  0  0  0
   -7.5136   23.7833    5.3231 C   0  0  0  0  0  0  0  0  0  0  0  0
   -4.4028   27.8824    5.6255 C   0  0  0  0  0  0  0  0  0  0  0  0
   -3.0382   27.7629    6.1822 C   0  0  0  0  0  0  0  0  0  0  0  0
   -2.0413   26.8382    5.9474 C   0  0  0  0  0  0  0  0  0  0  0  0
   -0.9242   27.1132    6.6923 N   0  0  0  0  0  0  0  0  0  0  0  0
   -1.2162   28.1964    7.3796 C   0  0  0  0  0  0  0  0  0  0  0  0
   -0.3460   28.8924    8.3690 C   0  0  0  0  0  0  0  0  0  0  0  0
   -0.8349   30.3134    8.6550 C   0  0  0  0  0  0  0  0  0  0  0  0
   -2.3444   30.3284    8.8970 C   0  0  0  0  0  0  0  0  0  0  0  0
   -3.0986   29.8103    7.6719 C   0  0  0  0  0  0  0  0  0  0  0  0
   -2.4935   28.6202    7.1045 N   0  0  0  0  0  0  0  0  0  0  0  0
  1  2  2  0  0  0
  2  3  1  0  0  0
  3 18  1  0  0  0
 18 19  1  0  0  0
 19 20  2  0  0  0
 20 21  1  0  0  0
 21 22  2  0  0  0
 22 23  1  0  0  0
 23 24  1  0  0  0
 24 25  1  0  0  0
 25 26  1  0  0  0
 26 27  1  0  0  0
  2  5  1  0  0  0
  5  6  2  0  0  0
  6  7  1  0  0  0
  7  8  2  0  0  0
  8  9  1  0  0  0
  9 10  2  0  0  0
 10 11  1  0  0  0
 11 12  1  0  0  0
 12 13  2  0  0  0
 13 14  1  0  0  0
 14 15  2  0  0  0
 15 16  1  0  0  0
 16 17  2  0  0  0
 27 19  1  0  0  0
 10  5  1  0  0  0
 17 12  1  0  0  0
 27 22  1  0  0  0
  3  4  1  0  0  0
M  END
> <minimizedAffinity>
-9.62287

$$$$
OCNT-2314646


 25 27  0  0  0  0  0  0  0  0999 V2000
   -4.9430   31.2663    7.5847 N   0  0  0  0  0  0  0  0  0  0  0  0
   -6.3465   31.2149    7.9983 C   0  0  0  0  0  0  0  0  0  0  0  0
   -6.9737   30.3550    6.9113 C   0  0  0  0  0  0  0  0  0  0  0  0
   -5.9645   29.2146    6.7520 C   0  0  0  0  0  0  0  0  0  0  0  0
   -6.2492   28.2600    7.7950 O   0  0  0  0  0  0  0  0  0  0  0  0
   -4.6152   29.9140    7.0797 C   0  0  0  0  0  0  0  0  0  0  0  0
   -6.8072   27.5633    7.4082 H   0  0  0  0  0  0  0  0  0  0  0  0
   -5.9821   28.4525    5.4358 C   0  0  0  0  0  0  0  0  0  0  0  0
   -5.9879   29.1672    4.2205 C   0  0  0  0  0  0  0  0  0  0  0  0
   -5.9766   28.5022    2.9927 C   0  0  0  0  0  0  0  0  0  0  0  0
   -5.9463   27.1156    2.9674 C   0  0  0  0  0  0  0  0  0  0  0  0
   -5.9327   26.4754    1.7912 F   0  0  0  0  0  0  0  0  0  0  0  0
   -5.9193   26.3837    4.1464 C   0  0  0  0  0  0  0  0  0  0  0  0
   -5.9300   27.0488    5.3759 C   0  0  0  0  0  0  0  0  0  0  0  0
   -4.0231   31.6995    8.6484 C   0  0  0  0  0  0  0  0  0  0  0  0
   -1.8092   32.7456    8.3952 O   0  0  0  0  0  0  0  0  0  0  0  0
   -2.5264   31.5078    8.3035 C   0  0  0  0  0  0  0  0  0  0  0  0
   -1.8727   33.0222    9.3327 H   0  0  0  0  0  0  0  0  0  0  0  0
   -1.8121   30.4621    9.1772 C   0  0  0  0  0  0  0  0  0  0  0  0
   -1.0025   29.4254    8.3880 C   0  0  0  0  0  0  0  0  0  0  0  0
   -1.5618   28.1030    8.5832 O   0  0  0  0  0  0  0  0  0  0  0  0
   -0.6592   29.7741    6.9073 C   0  0  0  0  0  0  0  0  0  0  0  0
    0.7580   29.2332    7.1653 C   0  0  0  0  0  0  0  0  0  0  0  0
    0.5316   29.5198    8.6593 C   0  0  0  0  0  0  0  0  0  0  0  0
   -1.3331   27.8698    9.5029 H   0  0  0  0  0  0  0  0  0  0  0  0
 16 17  1  0  0  0
 17 15  1  0  0  0
 15  1  1  0  0  0
  1  2  1  0  0  0
  2  3  1  0  0  0
  3  4  1  0  0  0
  4  5  1  0  0  0
  4  8  1  0  0  0
  8  9  1  0  0  0
  9 10  2  0  0  0
 10 11  1  0  0  0
 11 12  1  0  0  0
 11 13  2  0  0  0
 13 14  1  0  0  0
  4  6  1  0  0  0
 17 19  1  0  0  0
 19 20  1  0  0  0
 20 21  1  0  0  0
 20 22  1  0  0  0
 22 23  1  0  0  0
 23 24  1  0  0  0
  6  1  1  0  0  0
 24 20  1  0  0  0
 14  8  2  0  0  0
 16 18  1  0  0  0
  5  7  1  0  0  0
 21 25  1  0  0  0
M  END
> <minimizedAffinity>
-9.12887

$$$$
OCNT-2314654


 21 23  0  0  0  0  0  0  0  0999 V2000
   -6.3156   28.7254    5.8443 C   0  0  0  0  0  0  0  0  0  0  0  0
   -7.3063   29.6318    5.8024 N   0  0  0  0  0  0  0  0  0  0  0  0
   -7.0723   30.4363    6.9131 O   0  0  0  0  0  0  0  0  0  0  0  0
   -5.9577   29.9427    7.5213 C   0  0  0  0  0  0  0  0  0  0  0  0
   -5.4575   28.8924    6.9132 N   0  0  0  0  0  0  0  0  0  0  0  0
   -5.8155   25.5898    2.9706 C   0  0  0  0  0  0  0  0  0  0  0  0
   -6.0786   25.2813    4.3045 C   0  0  0  0  0  0  0  0  0  0  0  0
   -6.2430   26.3064    5.2461 C   0  0  0  0  0  0  0  0  0  0  0  0
   -6.1467   27.6537    4.8685 C   0  0  0  0  0  0  0  0  0  0  0  0
   -5.8824   27.9537    3.5263 C   0  0  0  0  0  0  0  0  0  0  0  0
   -5.7188   26.9292    2.5884 C   0  0  0  0  0  0  0  0  0  0  0  0
   -4.4236   24.7908    1.2173 C   0  0  0  0  0  0  0  0  0  0  0  0
   -5.6348   24.6914    1.9561 O   0  0  0  0  0  0  0  0  0  0  0  0
   -5.4798   30.6082    8.7658 C   0  0  0  0  0  0  0  0  0  0  0  0
   -6.6071   30.8852    9.7607 C   0  0  0  0  0  0  0  0  0  0  0  0
   -4.2962   29.8480    9.3838 C   0  0  0  0  0  0  0  0  0  0  0  0
   -3.0072   30.4970    9.2619 N   0  0  0  0  0  0  0  0  0  0  0  0
   -2.6727   31.7340    9.7356 C   0  0  0  0  0  0  0  0  0  0  0  0
   -1.3466   31.8922    9.4070 C   0  0  0  0  0  0  0  0  0  0  0  0
   -0.8669   30.7760    8.7719 N   0  0  0  0  0  0  0  0  0  0  0  0
   -1.8844   29.9478    8.7112 C   0  0  0  0  0  0  0  0  0  0  0  0
 12 13  1  0  0  0
 13  6  1  0  0  0
  6  7  1  0  0  0
  7  8  2  0  0  0
  8  9  1  0  0  0
  9  1  1  0  0  0
  1  2  2  0  0  0
  2  3  1  0  0  0
  3  4  1  0  0  0
  4 14  1  0  0  0
 14 15  1  0  0  0
 14 16  1  0  0  0
 16 17  1  0  0  0
 17 18  1  0  0  0
 18 19  2  0  0  0
 19 20  1  0  0  0
 20 21  2  0  0  0
  4  5  2  0  0  0
  9 10  2  0  0  0
 10 11  1  0  0  0
 11  6  2  0  0  0
  5  1  1  0  0  0
 21 17  1  0  0  0
M  END
> <minimizedAffinity>
-7.63070

$$$$
OCNT-2314665


 27 30  0  0  0  0  0  0  0  0999 V2000
   -2.7255   27.9998    6.1884 C   0  0  0  0  0  0  0  0  0  0  0  0
   -1.9968   26.6446    6.1576 C   0  0  0  0  0  0  0  0  0  0  0  0
   -2.2293   26.1538    4.7343 C   0  0  0  0  0  0  0  0  0  0  0  0
   -3.5198   26.7050    4.3621 N   0  0  0  0  0  0  0  0  0  0  0  0
   -4.3084   26.3524    3.2860 C   0  0  0  0  0  0  0  0  0  0  0  0
   -5.4256   26.8435    3.1261 O   0  0  0  0  0  0  0  0  0  0  0  0
   -3.9770   27.6732    5.3464 C   0  0  0  0  0  0  0  0  0  0  0  0
   -3.9513   30.6607    9.4211 N   0  0  0  0  0  0  0  0  0  0  0  0
   -4.7209   29.4277    9.1336 C   0  0  0  0  0  0  0  0  0  0  0  0
   -4.4258   28.7961    7.7513 C   0  0  0  0  0  0  0  0  0  0  0  0
   -2.9902   28.5015    7.5466 N   0  0  0  0  0  0  0  0  0  0  0  0
   -2.1769   29.6936    7.8686 C   0  0  0  0  0  0  0  0  0  0  0  0
   -2.5236   30.3062    9.2477 C   0  0  0  0  0  0  0  0  0  0  0  0
   -5.9048   31.8704    8.4287 C   0  0  0  0  0  0  0  0  0  0  0  0
   -4.3778   31.8303    8.6148 C   0  0  0  0  0  0  0  0  0  0  0  0
   -3.9631   33.1583    9.2723 C   0  0  0  0  0  0  0  0  0  0  0  0
   -3.7218   25.3139    2.3366 C   0  0  0  0  0  0  0  0  0  0  0  0
   -4.5615   24.0582    2.1936 C   0  0  0  0  0  0  0  0  0  0  0  0
   -4.2924   22.9798    3.0564 C   0  0  0  0  0  0  0  0  0  0  0  0
   -5.0196   21.7967    2.9691 C   0  0  0  0  0  0  0  0  0  0  0  0
   -6.0290   21.6727    2.0199 C   0  0  0  0  0  0  0  0  0  0  0  0
   -6.3271   22.7355    1.1522 C   0  0  0  0  0  0  0  0  0  0  0  0
   -7.3411   22.6336    0.1955 C   0  0  0  0  0  0  0  0  0  0  0  0
   -7.6886   23.6117   -0.6708 N   0  0  0  0  0  0  0  0  0  0  0  0
   -6.9966   24.7610   -0.5741 C   0  0  0  0  0  0  0  0  0  0  0  0
   -5.9692   24.9730    0.3343 C   0  0  0  0  0  0  0  0  0  0  0  0
   -5.6029   23.9467    1.2286 C   0  0  0  0  0  0  0  0  0  0  0  0
 14 15  1  0  0  0
 15 16  1  0  0  0
 15  8  1  0  0  0
  8  9  1  0  0  0
  9 10  1  0  0  0
 10 11  1  0  0  0
 11  1  1  0  0  0
  1  2  1  0  0  0
  2  3  1  0  0  0
  3  4  1  0  0  0
  4  5  1  0  0  0
  5  6  2  0  0  0
  5 17  1  0  0  0
 17 18  1  0  0  0
 18 19  2  0  0  0
 19 20  1  0  0  0
 20 21  2  0  0  0
 21 22  1  0  0  0
 22 23  2  0  0  0
 23 24  1  0  0  0
 24 25  2  0  0  0
 25 26  1  0  0  0
 26 27  2  0  0  0
  4  7  1  0  0  0
 11 12  1  0  0  0
 12 13  1  0  0  0
 13  8  1  0  0  0
  7  1  1  0  0  0
 27 18  1  0  0  0
 27 22  1  0  0  0
M  END
> <minimizedAffinity>
-10.16175

$$$$
OCNT-2314682


 25 28  0  0  0  0  0  0  0  0999 V2000
   -0.5754   26.4144    5.4347 C   0  0  0  0  0  0  0  0  0  0  0  0
   -1.5779   27.2974    5.9814 N   0  0  0  0  0  0  0  0  0  0  0  0
   -1.3382   28.3768    6.8007 C   0  0  0  0  0  0  0  0  0  0  0  0
   -0.1725   28.9377    7.3348 C   0  0  0  0  0  0  0  0  0  0  0  0
   -0.3232   30.0675    8.1496 C   0  0  0  0  0  0  0  0  0  0  0  0
   -1.5862   30.6161    8.4282 C   0  0  0  0  0  0  0  0  0  0  0  0
   -2.7362   30.0331    7.8643 C   0  0  0  0  0  0  0  0  0  0  0  0
   -2.6019   28.9026    7.0456 C   0  0  0  0  0  0  0  0  0  0  0  0
   -3.5710   28.1826    6.3995 N   0  0  0  0  0  0  0  0  0  0  0  0
   -2.9359   27.2220    5.7526 C   0  0  0  0  0  0  0  0  0  0  0  0
   -1.7129   31.8466    9.2902 C   0  0  0  0  0  0  0  0  0  0  0  0
   -2.5729   32.7737    8.7838 F   0  0  0  0  0  0  0  0  0  0  0  0
   -2.1643   31.5729   10.5471 F   0  0  0  0  0  0  0  0  0  0  0  0
   -0.5235   32.4888    9.4545 F   0  0  0  0  0  0  0  0  0  0  0  0
   -3.5904   26.1840    4.8841 C   0  0  0  0  0  0  0  0  0  0  0  0
   -3.6672   26.5965    3.4679 N   0  0  0  0  0  0  0  0  0  0  0  0
   -4.9641   27.2244    3.1547 C   0  0  0  0  0  0  0  0  0  0  0  0
   -5.9065   26.1116    2.7015 C   0  0  0  0  0  0  0  0  0  0  0  0
   -5.0237   24.8748    2.5279 C   0  0  0  0  0  0  0  0  0  0  0  0
   -3.6045   25.4375    2.5644 C   0  0  0  0  0  0  0  0  0  0  0  0
   -5.3293   24.0701    1.2656 C   0  0  0  0  0  0  0  0  0  0  0  0
   -6.5965   24.4860    0.5446 C   0  0  0  0  0  0  0  0  0  0  0  0
   -6.8820   23.2682   -0.3090 C   0  0  0  0  0  0  0  0  0  0  0  0
   -6.3900   22.1302    0.4132 O   0  0  0  0  0  0  0  0  0  0  0  0
   -5.6072   22.5963    1.5210 C   0  0  0  0  0  0  0  0  0  0  0  0
  1  2  1  0  0  0
  2  3  1  0  0  0
  3  4  2  0  0  0
  4  5  1  0  0  0
  5  6  2  0  0  0
  6 11  1  0  0  0
 11 12  1  0  0  0
 11 13  1  0  0  0
 11 14  1  0  0  0
  6  7  1  0  0  0
  7  8  2  0  0  0
  8  9  1  0  0  0
  9 10  2  0  0  0
 10 15  1  0  0  0
 15 16  1  0  0  0
 16 17  1  0  0  0
 17 18  1  0  0  0
 18 19  1  0  0  0
 19 21  1  0  0  0
 21 22  1  0  0  0
 22 23  1  0  0  0
 23 24  1  0  0  0
 24 25  1  0  0  0
 19 20  1  0  0  0
 10  2  1  0  0  0
 20 16  1  0  0  0
  8  3  1  0  0  0
 25 21  1  0  0  0
M  END
> <minimizedAffinity>
-9.69845

$$$$
OCNT-2314691


 30 33  0  0  0  0  0  0  0  0999 V2000
   -4.2636   27.5987    6.0478 O   0  0  0  0  0  0  0  0  0  0  0  0
   -5.2727   28.3051    6.0741 C   0  0  0  0  0  0  0  0  0  0  0  0
   -5.4711   29.2824    7.0528 N   0  0  0  0  0  0  0  0  0  0  0  0
   -6.4695   30.3503    6.9281 C   0  0  0  0  0  0  0  0  0  0  0  0
   -6.9829   30.8339    8.2797 C   0  0  0  0  0  0  0  0  0  0  0  0
   -5.8417   31.1926    9.2216 C   0  0  0  0  0  0  0  0  0  0  0  0
   -4.8873   30.0120    9.3561 C   0  0  0  0  0  0  0  0  0  0  0  0
   -4.3550   29.5235    7.9972 C   0  0  0  0  0  0  0  0  0  0  0  0
   -6.3642   28.1373    5.0349 C   0  0  0  0  0  0  0  0  0  0  0  0
   -5.8030   28.2440    3.6199 C   0  0  0  0  0  0  0  0  0  0  0  0
   -5.3306   26.9246    3.1441 C   0  0  0  0  0  0  0  0  0  0  0  0
   -6.0030   25.8130    2.9601 N   0  0  0  0  0  0  0  0  0  0  0  0
   -5.0309   24.9481    2.5005 C   0  0  0  0  0  0  0  0  0  0  0  0
   -3.8137   25.5076    2.3931 N   0  0  0  0  0  0  0  0  0  0  0  0
   -4.0111   26.8181    2.8214 O   0  0  0  0  0  0  0  0  0  0  0  0
   -5.3242   23.5616    2.1604 C   0  0  0  0  0  0  0  0  0  0  0  0
   -5.8440   23.2405    0.9029 C   0  0  0  0  0  0  0  0  0  0  0  0
   -6.1084   21.9125    0.6156 C   0  0  0  0  0  0  0  0  0  0  0  0
   -5.8923   20.9013    1.4825 N   0  0  0  0  0  0  0  0  0  0  0  0
   -5.3920   21.2316    2.6920 C   0  0  0  0  0  0  0  0  0  0  0  0
   -5.0950   22.5289    3.0738 C   0  0  0  0  0  0  0  0  0  0  0  0
   -3.2983   30.4676    7.3699 C   0  0  0  0  0  0  0  0  0  0  0  0
   -1.8714   30.0662    7.6587 C   0  0  0  0  0  0  0  0  0  0  0  0
   -1.2221   30.5127    8.8177 C   0  0  0  0  0  0  0  0  0  0  0  0
    0.0945   30.1305    9.0796 C   0  0  0  0  0  0  0  0  0  0  0  0
    0.7639   29.3047    8.1853 C   0  0  0  0  0  0  0  0  0  0  0  0
    2.0484   28.9561    8.4811 O   0  0  0  0  0  0  0  0  0  0  0  0
    0.1389   28.8526    7.0283 C   0  0  0  0  0  0  0  0  0  0  0  0
   -1.1783   29.2349    6.7659 C   0  0  0  0  0  0  0  0  0  0  0  0
    2.3840   28.3876    7.7687 H   0  0  0  0  0  0  0  0  0  0  0  0
  1  2  2  0  0  0
  2  9  1  0  0  0
  9 10  1  0  0  0
 10 11  1  0  0  0
 11 12  2  0  0  0
 12 13  1  0  0  0
 13 16  1  0  0  0
 16 17  2  0  0  0
 17 18  1  0  0  0
 18 19  2  0  0  0
 19 20  1  0  0  0
 20 21  2  0  0  0
 13 14  2  0  0  0
 14 15  1  0  0  0
  2  3  1  0  0  0
  3  4  1  0  0  0
  4  5  1  0  0  0
  5  6  1  0  0  0
  6  7  1  0  0  0
  7  8  1  0  0  0
  8 22  1  0  0  0
 22 23  1  0  0  0
 23 24  1  0  0  0
 24 25  2  0  0  0
 25 26  1  0  0  0
 26 27  1  0  0  0
 26 28  2  0  0  0
 28 29  1  0  0  0
 15 11  1  0  0  0
  8  3  1  0  0  0
 29 23  2  0  0  0
 21 16  1  0  0  0
 27 30  1  0  0  0
M  END
> <minimizedAffinity>
-10.17436

$$$$
OCNT-2314695


 25 27  0  0  0  0  0  0  0  0999 V2000
   -1.5240   29.4626    7.4005 C   0  0  0  0  0  0  0  0  0  0  0  0
   -2.3397   28.5063    6.8236 C   0  0  0  0  0  0  0  0  0  0  0  0
   -3.6769   28.8113    6.6804 C   0  0  0  0  0  0  0  0  0  0  0  0
   -4.1760   29.9808    7.1048 N   0  0  0  0  0  0  0  0  0  0  0  0
   -3.3289   30.8711    7.6495 C   0  0  0  0  0  0  0  0  0  0  0  0
   -2.0112   30.6605    7.8076 N   0  0  0  0  0  0  0  0  0  0  0  0
   -3.8782   32.1576    8.0967 C   0  0  0  0  0  0  0  0  0  0  0  0
   -3.7323   32.6286    9.4115 C   0  0  0  0  0  0  0  0  0  0  0  0
   -4.2663   33.8597    9.7928 C   0  0  0  0  0  0  0  0  0  0  0  0
   -4.9414   34.6038    8.8430 C   0  0  0  0  0  0  0  0  0  0  0  0
   -5.1137   34.2025    7.5679 N   0  0  0  0  0  0  0  0  0  0  0  0
   -4.5828   32.9969    7.2323 C   0  0  0  0  0  0  0  0  0  0  0  0
    0.7328   29.6939    6.5607 F   0  0  0  0  0  0  0  0  0  0  0  0
   -0.0426   29.1676    7.5510 C   0  0  0  0  0  0  0  0  0  0  0  0
    0.4755   29.6504    8.7191 F   0  0  0  0  0  0  0  0  0  0  0  0
    0.2221   27.8290    7.5610 F   0  0  0  0  0  0  0  0  0  0  0  0
   -4.5217   27.8319    6.1514 N   0  0  0  0  0  0  0  0  0  0  0  0
   -4.0018   26.9996    5.8645 H   0  0  0  0  0  0  0  0  0  0  0  0
   -5.4860   28.2739    5.1504 C   0  0  0  0  0  0  0  0  0  0  0  0
   -6.0614   27.1022    4.3191 C   0  0  0  0  0  0  0  0  0  0  0  0
   -5.4054   26.9850    2.9365 C   0  0  0  0  0  0  0  0  0  0  0  0
   -3.9835   26.4328    2.9896 C   0  0  0  0  0  0  0  0  0  0  0  0
   -3.7011   25.7521    4.2147 O   0  0  0  0  0  0  0  0  0  0  0  0
   -4.7812   24.9122    4.6242 C   0  0  0  0  0  0  0  0  0  0  0  0
   -5.9988   25.7432    5.0361 C   0  0  0  0  0  0  0  0  0  0  0  0
 13 14  1  0  0  0
 14 15  1  0  0  0
 14 16  1  0  0  0
 14  1  1  0  0  0
  1  2  1  0  0  0
  2  3  2  0  0  0
  3 17  1  0  0  0
 17 19  1  0  0  0
 19 20  1  0  0  0
 20 21  1  0  0  0
 21 22  1  0  0  0
 22 23  1  0  0  0
 23 24  1  0  0  0
 24 25  1  0  0  0
  3  4  1  0  0  0
  4  5  2  0  0  0
  5  7  1  0  0  0
  7  8  1  0  0  0
  8  9  2  0  0  0
  9 10  1  0  0  0
 10 11  2  0  0  0
 11 12  1  0  0  0
  5  6  1  0  0  0
  6  1  2  0  0  0
 25 20  1  0  0  0
 12  7  2  0  0  0
 17 18  1  0  0  0
M  END
> <minimizedAffinity>
-8.58694

$$$$
OCNT-2314714


 28 30  0  0  0  0  0  0  0  0999 V2000
   -4.9065   25.2630    4.6776 N   0  0  0  0  0  0  0  0  0  0  0  0
   -4.8975   26.6073    4.4428 C   0  0  0  0  0  0  0  0  0  0  0  0
   -4.4258   27.1343    3.4467 O   0  0  0  0  0  0  0  0  0  0  0  0
   -5.4685   27.2988    5.4812 N   0  0  0  0  0  0  0  0  0  0  0  0
   -5.5955   24.9180    5.3309 H   0  0  0  0  0  0  0  0  0  0  0  0
   -5.3721   26.8365    6.3785 H   0  0  0  0  0  0  0  0  0  0  0  0
   -5.3395   28.7519    5.5397 C   0  0  0  0  0  0  0  0  0  0  0  0
   -6.7174   29.4132    5.5755 C   0  0  0  0  0  0  0  0  0  0  0  0
   -6.9039   29.8845    7.0180 C   0  0  0  0  0  0  0  0  0  0  0  0
   -5.8554   29.1858    7.7702 N   0  0  0  0  0  0  0  0  0  0  0  0
   -4.6953   29.1934    6.8617 C   0  0  0  0  0  0  0  0  0  0  0  0
   -5.6124   29.6436    9.1531 C   0  0  0  0  0  0  0  0  0  0  0  0
   -6.4654   30.9040    9.4174 C   0  0  0  0  0  0  0  0  0  0  0  0
   -4.1328   30.0623    9.3075 C   0  0  0  0  0  0  0  0  0  0  0  0
   -5.9439   28.5991   10.2388 C   0  0  0  0  0  0  0  0  0  0  0  0
   -4.4276   24.3154    3.6974 C   0  0  0  0  0  0  0  0  0  0  0  0
   -6.0934   22.4196    3.8247 C   0  0  0  0  0  0  0  0  0  0  0  0
   -7.1626   21.6959    3.2977 C   0  0  0  0  0  0  0  0  0  0  0  0
   -7.7140   22.0433    2.0682 C   0  0  0  0  0  0  0  0  0  0  0  0
   -7.2060   23.1126    1.3273 C   0  0  0  0  0  0  0  0  0  0  0  0
   -7.7690   23.4279    0.0813 C   0  0  0  0  0  0  0  0  0  0  0  0
   -7.2759   24.4815   -0.6813 C   0  0  0  0  0  0  0  0  0  0  0  0
   -6.2089   25.2291   -0.2090 C   0  0  0  0  0  0  0  0  0  0  0  0
   -5.6406   24.9254    1.0283 C   0  0  0  0  0  0  0  0  0  0  0  0
   -6.1226   23.8688    1.8356 C   0  0  0  0  0  0  0  0  0  0  0  0
   -5.5792   23.5252    3.1131 C   0  0  0  0  0  0  0  0  0  0  0  0
   -6.2477   22.2579    6.2037 C   0  0  0  0  0  0  0  0  0  0  0  0
   -5.4747   22.1229    5.0141 O   0  0  0  0  0  0  0  0  0  0  0  0
 27 28  1  0  0  0
 28 17  1  0  0  0
 17 18  1  0  0  0
 18 19  2  0  0  0
 19 20  1  0  0  0
 20 21  2  0  0  0
 21 22  1  0  0  0
 22 23  2  0  0  0
 23 24  1  0  0  0
 24 25  2  0  0  0
 25 26  1  0  0  0
 26 16  1  0  0  0
 16  1  1  0  0  0
  1  2  1  0  0  0
  2  3  2  0  0  0
  2  4  1  0  0  0
  4  7  1  0  0  0
  7  8  1  0  0  0
  8  9  1  0  0  0
  9 10  1  0  0  0
 10 12  1  0  0  0
 12 13  1  0  0  0
 12 14  1  0  0  0
 12 15  1  0  0  0
 10 11  1  0  0  0
 26 17  2  0  0  0
 11  7  1  0  0  0
 25 20  1  0  0  0
  1  5  1  0  0  0
  4  6  1  0  0  0
M  END
> <minimizedAffinity>
-9.52893

$$$$
OCNT-2314717


 28 30  0  0  0  0  0  0  0  0999 V2000
   -5.3168   27.9342    6.3602 N   0  0  0  0  0  0  0  0  0  0  0  0
   -4.7958   29.1636    6.0560 C   0  0  0  0  0  0  0  0  0  0  0  0
   -5.3864   29.9570    5.3289 O   0  0  0  0  0  0  0  0  0  0  0  0
   -3.5797   29.4572    6.6534 N   0  0  0  0  0  0  0  0  0  0  0  0
   -2.8136   28.5172    7.4702 C   0  0  0  0  0  0  0  0  0  0  0  0
   -1.5347   29.1183    8.0490 C   0  0  0  0  0  0  0  0  0  0  0  0
   -1.8180   30.4995    8.6485 C   0  0  0  0  0  0  0  0  0  0  0  0
   -0.5594   31.0703    9.3058 C   0  0  0  0  0  0  0  0  0  0  0  0
   -2.3767   31.4656    7.5695 C   0  0  0  0  0  0  0  0  0  0  0  0
   -2.9405   30.7353    6.3320 C   0  0  0  0  0  0  0  0  0  0  0  0
   -4.6709   27.2091    6.6202 H   0  0  0  0  0  0  0  0  0  0  0  0
   -3.3366   32.4021    8.1510 N   0  0  0  0  0  0  0  0  0  0  0  0
   -4.3315   33.0512    7.4694 C   0  0  0  0  0  0  0  0  0  0  0  0
   -4.9422   33.8508    8.4063 C   0  0  0  0  0  0  0  0  0  0  0  0
   -4.3465   33.7061    9.6308 N   0  0  0  0  0  0  0  0  0  0  0  0
   -3.3933   32.8191    9.4514 C   0  0  0  0  0  0  0  0  0  0  0  0
   -6.5506   27.4818    5.7530 C   0  0  0  0  0  0  0  0  0  0  0  0
   -5.8766   24.6097    2.6736 C   0  0  0  0  0  0  0  0  0  0  0  0
   -5.6528   25.9559    2.3919 C   0  0  0  0  0  0  0  0  0  0  0  0
   -5.8628   26.9085    3.3862 C   0  0  0  0  0  0  0  0  0  0  0  0
   -6.2838   26.4990    4.6509 C   0  0  0  0  0  0  0  0  0  0  0  0
   -6.4845   25.1367    4.8429 C   0  0  0  0  0  0  0  0  0  0  0  0
   -6.2890   24.1947    3.8900 N   0  0  0  0  0  0  0  0  0  0  0  0
   -5.6487   23.6698    1.6294 N   0  0  0  0  0  0  0  0  0  0  0  0
   -5.8136   21.2229    1.8194 C   0  0  0  0  0  0  0  0  0  0  0  0
   -5.0365   22.4674    2.2312 C   0  0  0  0  0  0  0  0  0  0  0  0
   -6.9299   23.3906    0.9457 C   0  0  0  0  0  0  0  0  0  0  0  0
   -7.0311   24.1496   -0.3721 C   0  0  0  0  0  0  0  0  0  0  0  0
 25 26  1  0  0  0
 26 24  1  0  0  0
 24 27  1  0  0  0
 27 28  1  0  0  0
 24 18  1  0  0  0
 18 19  2  0  0  0
 19 20  1  0  0  0
 20 21  2  0  0  0
 21 17  1  0  0  0
 17  1  1  0  0  0
  1  2  1  0  0  0
  2  3  2  0  0  0
  2  4  1  0  0  0
  4  5  1  0  0  0
  5  6  1  0  0  0
  6  7  1  0  0  0
  7  8  1  0  0  0
  7  9  1  0  0  0
  9 12  1  0  0  0
 12 13  1  0  0  0
 13 14  2  0  0  0
 14 15  1  0  0  0
 15 16  2  0  0  0
  9 10  1  0  0  0
 21 22  1  0  0  0
 22 23  2  0  0  0
 23 18  1  0  0  0
 10  4  1  0  0  0
 16 12  1  0  0  0
  1 11  1  0  0  0
M  END
> <minimizedAffinity>
-9.13823

$$$$
OCNT-2314724


 22 25  0  0  0  0  0  0  0  0999 V2000
   -2.8655   25.9675    3.0774 C   0  0  0  0  0  0  0  0  0  0  0  0
   -4.2647   25.3918    2.9042 C   0  0  0  0  0  0  0  0  0  0  0  0
   -4.2793   23.8920    3.1916 C   0  0  0  0  0  0  0  0  0  0  0  0
   -5.6501   23.3943    3.0294 N   0  0  0  0  0  0  0  0  0  0  0  0
   -6.1904   22.6292    4.0552 C   0  0  0  0  0  0  0  0  0  0  0  0
   -5.4576   22.0734    4.8799 O   0  0  0  0  0  0  0  0  0  0  0  0
   -6.2346   23.7719    1.7859 C   0  0  0  0  0  0  0  0  0  0  0  0
   -7.2278   23.0190    1.1514 C   0  0  0  0  0  0  0  0  0  0  0  0
   -7.7637   23.4254   -0.0759 C   0  0  0  0  0  0  0  0  0  0  0  0
   -7.2892   24.5728   -0.7034 C   0  0  0  0  0  0  0  0  0  0  0  0
   -6.2586   25.3010   -0.1172 C   0  0  0  0  0  0  0  0  0  0  0  0
   -5.7270   24.9013    1.1117 C   0  0  0  0  0  0  0  0  0  0  0  0
   -4.6837   25.6743    1.5622 O   0  0  0  0  0  0  0  0  0  0  0  0
   -7.7089   22.5986    4.2573 C   0  0  0  0  0  0  0  0  0  0  0  0
   -8.1957   21.1600    4.5583 C   0  0  0  0  0  0  0  0  0  0  0  0
   -9.7180   21.1090    4.7180 C   0  0  0  0  0  0  0  0  0  0  0  0
  -10.2043   22.2062    5.5893 C   0  0  0  0  0  0  0  0  0  0  0  0
  -11.3750   22.3377    6.1726 N   0  0  0  0  0  0  0  0  0  0  0  0
  -11.3754   23.5407    6.8481 N   0  0  0  0  0  0  0  0  0  0  0  0
  -10.2072   24.1103    6.6559 C   0  0  0  0  0  0  0  0  0  0  0  0
   -9.4478   23.3080    5.8708 N   0  0  0  0  0  0  0  0  0  0  0  0
   -8.0906   23.5221    5.4245 C   0  0  0  0  0  0  0  0  0  0  0  0
  1  2  1  0  0  0
  2  3  1  0  0  0
  3  4  1  0  0  0
  4  5  1  0  0  0
  5  6  2  0  0  0
  5 14  1  0  0  0
 14 15  1  0  0  0
 15 16  1  0  0  0
 16 17  1  0  0  0
 17 18  2  0  0  0
 18 19  1  0  0  0
 19 20  2  0  0  0
 20 21  1  0  0  0
 21 22  1  0  0  0
  4  7  1  0  0  0
  7  8  2  0  0  0
  8  9  1  0  0  0
  9 10  2  0  0  0
 10 11  1  0  0  0
 11 12  2  0  0  0
 12 13  1  0  0  0
 13  2  1  0  0  0
 22 14  1  0  0  0
 12  7  1  0  0  0
 21 17  1  0  0  0
M  END
> <minimizedAffinity>
-9.28998

$$$$
OCNT-2314757


 24 27  0  0  0  0  0  0  0  0999 V2000
   -1.4846   30.4819    7.9774 C   0  0  0  0  0  0  0  0  0  0  0  0
   -0.9501   31.2474    9.0176 C   0  0  0  0  0  0  0  0  0  0  0  0
   -1.7907   31.9572    9.8968 C   0  0  0  0  0  0  0  0  0  0  0  0
   -3.1782   31.9152    9.7532 C   0  0  0  0  0  0  0  0  0  0  0  0
   -3.7019   31.1553    8.7237 C   0  0  0  0  0  0  0  0  0  0  0  0
   -2.8648   30.4498    7.8494 C   0  0  0  0  0  0  0  0  0  0  0  0
   -3.6831   29.7163    6.8365 C   0  0  0  0  0  0  0  0  0  0  0  0
   -5.0670   30.0302    7.2153 N   0  0  0  0  0  0  0  0  0  0  0  0
   -6.2050   29.7705    6.4810 C   0  0  0  0  0  0  0  0  0  0  0  0
   -7.3000   30.2622    6.7409 O   0  0  0  0  0  0  0  0  0  0  0  0
   -5.1334   30.9508    8.3477 C   0  0  0  0  0  0  0  0  0  0  0  0
   -6.1082   28.8755    5.3169 C   0  0  0  0  0  0  0  0  0  0  0  0
   -6.0063   29.3467    4.0143 C   0  0  0  0  0  0  0  0  0  0  0  0
   -5.8998   28.4237    2.9729 C   0  0  0  0  0  0  0  0  0  0  0  0
   -5.8766   27.0517    3.2497 C   0  0  0  0  0  0  0  0  0  0  0  0
   -5.9646   26.6009    4.5171 N   0  0  0  0  0  0  0  0  0  0  0  0
   -6.0579   27.5086    5.5211 C   0  0  0  0  0  0  0  0  0  0  0  0
   -5.8023   26.1736    2.1381 N   0  0  0  0  0  0  0  0  0  0  0  0
   -5.1224   26.5565    1.4858 H   0  0  0  0  0  0  0  0  0  0  0  0
   -5.7685   24.7075    2.2220 C   0  0  0  0  0  0  0  0  0  0  0  0
   -6.4647   23.7918    1.2602 C   0  0  0  0  0  0  0  0  0  0  0  0
   -4.9598   23.8068    1.3385 C   0  0  0  0  0  0  0  0  0  0  0  0
    0.5046   29.2949    7.4636 C   0  0  0  0  0  0  0  0  0  0  0  0
   -0.7823   29.7511    7.0647 O   0  0  0  0  0  0  0  0  0  0  0  0
 23 24  1  0  0  0
 24  1  1  0  0  0
  1  2  1  0  0  0
  2  3  2  0  0  0
  3  4  1  0  0  0
  4  5  2  0  0  0
  5  6  1  0  0  0
  6  7  1  0  0  0
  7  8  1  0  0  0
  8  9  1  0  0  0
  9 10  2  0  0  0
  9 12  1  0  0  0
 12 13  2  0  0  0
 13 14  1  0  0  0
 14 15  2  0  0  0
 15 18  1  0  0  0
 18 20  1  0  0  0
 20 21  1  0  0  0
 21 22  1  0  0  0
 15 16  1  0  0  0
 16 17  2  0  0  0
  8 11  1  0  0  0
  6  1  2  0  0  0
 17 12  1  0  0  0
 11  5  1  0  0  0
 22 20  1  0  0  0
 18 19  1  0  0  0
M  END
> <minimizedAffinity>
-9.13083

$$$$
OCNT-2314762


 23 26  0  0  0  0  0  0  0  0999 V2000
   -3.4854   25.7489    3.7899 C   0  0  0  0  0  0  0  0  0  0  0  0
   -3.9076   26.6019    4.7791 C   0  0  0  0  0  0  0  0  0  0  0  0
   -2.7536   26.9381    5.4194 N   0  0  0  0  0  0  0  0  0  0  0  0
   -1.6855   26.3362    4.8671 N   0  0  0  0  0  0  0  0  0  0  0  0
   -2.1280   25.5989    3.8562 N   0  0  0  0  0  0  0  0  0  0  0  0
   -6.9029   22.6439   -0.2662 C   0  0  0  0  0  0  0  0  0  0  0  0
   -7.2249   23.9350   -0.6800 C   0  0  0  0  0  0  0  0  0  0  0  0
   -6.6784   25.0540   -0.0443 C   0  0  0  0  0  0  0  0  0  0  0  0
   -5.7985   24.8270    1.0201 C   0  0  0  0  0  0  0  0  0  0  0  0
   -5.1194   25.7184    1.8188 N   0  0  0  0  0  0  0  0  0  0  0  0
   -4.3654   25.0465    2.7421 C   0  0  0  0  0  0  0  0  0  0  0  0
   -4.5508   23.6978    2.5449 C   0  0  0  0  0  0  0  0  0  0  0  0
   -5.4571   23.5457    1.4569 C   0  0  0  0  0  0  0  0  0  0  0  0
   -6.0206   22.4346    0.8004 C   0  0  0  0  0  0  0  0  0  0  0  0
   -5.1635   26.7254    1.7420 H   0  0  0  0  0  0  0  0  0  0  0  0
   -2.5880   27.8297    6.5481 C   0  0  0  0  0  0  0  0  0  0  0  0
   -1.1571   27.8117    7.0861 C   0  0  0  0  0  0  0  0  0  0  0  0
   -0.4043   29.1129    6.8146 C   0  0  0  0  0  0  0  0  0  0  0  0
   -0.8774   30.2368    7.5930 N   0  0  0  0  0  0  0  0  0  0  0  0
   -1.6505   31.2676    7.1400 C   0  0  0  0  0  0  0  0  0  0  0  0
   -1.8259   32.0839    8.2331 C   0  0  0  0  0  0  0  0  0  0  0  0
   -1.1901   31.5667    9.3323 N   0  0  0  0  0  0  0  0  0  0  0  0
   -0.6387   30.4482    8.9204 C   0  0  0  0  0  0  0  0  0  0  0  0
  6  7  2  0  0  0
  7  8  1  0  0  0
  8  9  2  0  0  0
  9 10  1  0  0  0
 10 11  1  0  0  0
 11  1  1  0  0  0
  1  2  2  0  0  0
  2  3  1  0  0  0
  3 16  1  0  0  0
 16 17  1  0  0  0
 17 18  1  0  0  0
 18 19  1  0  0  0
 19 20  1  0  0  0
 20 21  2  0  0  0
 21 22  1  0  0  0
 22 23  2  0  0  0
  3  4  1  0  0  0
  4  5  2  0  0  0
 11 12  2  0  0  0
 12 13  1  0  0  0
 13 14  2  0  0  0
 14  6  1  0  0  0
 13  9  1  0  0  0
  5  1  1  0  0  0
 23 19  1  0  0  0
 10 15  1  0  0  0
M  END
> <minimizedAffinity>
-8.40068

$$$$
OCNT-2314763


 28 30  0  0  0  0  0  0  0  0999 V2000
   -0.6479   29.8455    7.8886 C   0  0  0  0  0  0  0  0  0  0  0  0
   -0.8127   30.6769    9.1741 C   0  0  0  0  0  0  0  0  0  0  0  0
   -1.4638   32.0483    8.9560 C   0  0  0  0  0  0  0  0  0  0  0  0
   -2.5906   32.0121    7.9203 C   0  0  0  0  0  0  0  0  0  0  0  0
   -2.0942   31.4829    6.5638 C   0  0  0  0  0  0  0  0  0  0  0  0
   -0.7685   30.7144    6.6340 C   0  0  0  0  0  0  0  0  0  0  0  0
   -1.2976   27.7309    6.8685 N   0  0  0  0  0  0  0  0  0  0  0  0
   -1.6342   28.6760    7.8093 C   0  0  0  0  0  0  0  0  0  0  0  0
   -2.6603   28.6175    8.4815 O   0  0  0  0  0  0  0  0  0  0  0  0
   -0.3902   27.7826    6.4234 H   0  0  0  0  0  0  0  0  0  0  0  0
   -2.0503   26.5071    6.7022 C   0  0  0  0  0  0  0  0  0  0  0  0
   -0.7817   25.5661    4.1060 C   0  0  0  0  0  0  0  0  0  0  0  0
   -2.1938   26.0642    4.1842 C   0  0  0  0  0  0  0  0  0  0  0  0
   -2.9757   26.1068    3.0300 C   0  0  0  0  0  0  0  0  0  0  0  0
   -4.2567   26.5340    2.9862 N   0  0  0  0  0  0  0  0  0  0  0  0
   -4.7975   26.9413    4.1497 C   0  0  0  0  0  0  0  0  0  0  0  0
   -4.1113   26.9495    5.3519 C   0  0  0  0  0  0  0  0  0  0  0  0
   -2.7784   26.5147    5.3809 C   0  0  0  0  0  0  0  0  0  0  0  0
   -3.7118   31.2196    8.4096 N   0  0  0  0  0  0  0  0  0  0  0  0
   -4.8620   31.8132    8.8897 C   0  0  0  0  0  0  0  0  0  0  0  0
   -5.0754   33.0193    8.8307 O   0  0  0  0  0  0  0  0  0  0  0  0
   -3.5128   30.2782    8.7524 H   0  0  0  0  0  0  0  0  0  0  0  0
   -5.8214   30.8107    9.5078 C   0  0  0  0  0  0  0  0  0  0  0  0
   -6.7863   30.2016    8.4925 C   0  0  0  0  0  0  0  0  0  0  0  0
   -6.2728   28.8828    7.9107 C   0  0  0  0  0  0  0  0  0  0  0  0
   -7.0076   28.7199    6.5810 C   0  0  0  0  0  0  0  0  0  0  0  0
   -7.6058   30.0863    6.2485 C   0  0  0  0  0  0  0  0  0  0  0  0
   -6.9785   31.0556    7.2397 C   0  0  0  0  0  0  0  0  0  0  0  0
 12 13  1  0  0  0
 13 14  2  0  0  0
 14 15  1  0  0  0
 15 16  2  0  0  0
 16 17  1  0  0  0
 17 18  2  0  0  0
 18 11  1  0  0  0
 11  7  1  0  0  0
  7  8  1  0  0  0
  8  9  2  0  0  0
  8  1  1  0  0  0
  1  2  1  0  0  0
  2  3  1  0  0  0
  3  4  1  0  0  0
  4 19  1  0  0  0
 19 20  1  0  0  0
 20 21  2  0  0  0
 20 23  1  0  0  0
 23 24  1  0  0  0
 24 25  1  0  0  0
 25 26  1  0  0  0
 26 27  1  0  0  0
 27 28  1  0  0  0
  4  5  1  0  0  0
  5  6  1  0  0  0
 18 13  1  0  0  0
  6  1  1  0  0  0
 28 24  1  0  0  0
  7 10  1  0  0  0
 19 22  1  0  0  0
M  END
> <minimizedAffinity>
-9.00527

$$$$
OCNT-2314770


 22 25  0  0  0  0  0  0  0  0999 V2000
   -2.2738   28.4747    7.7102 N   0  0  0  0  0  0  0  0  0  0  0  0
   -3.4742   28.6320    8.5355 C   0  0  0  0  0  0  0  0  0  0  0  0
   -3.6351   30.1644    8.6045 C   0  0  0  0  0  0  0  0  0  0  0  0
   -2.6908   30.7491    9.6752 C   0  0  0  0  0  0  0  0  0  0  0  0
   -2.3334   32.2110    9.4414 C   0  0  0  0  0  0  0  0  0  0  0  0
   -1.7470   32.3997    8.0496 C   0  0  0  0  0  0  0  0  0  0  0  0
   -2.7625   32.0049    6.9856 C   0  0  0  0  0  0  0  0  0  0  0  0
   -3.3092   30.5723    7.1539 C   0  0  0  0  0  0  0  0  0  0  0  0
   -4.6924   30.4489    6.4829 C   0  0  0  0  0  0  0  0  0  0  0  0
   -5.5878   31.0151    7.4937 N   0  0  0  0  0  0  0  0  0  0  0  0
   -6.9872   30.6990    7.2596 C   0  0  0  0  0  0  0  0  0  0  0  0
   -5.1059   30.5706    8.8100 C   0  0  0  0  0  0  0  0  0  0  0  0
   -2.3357   29.4916    6.6495 C   0  0  0  0  0  0  0  0  0  0  0  0
   -2.0649   27.1186    7.1870 C   0  0  0  0  0  0  0  0  0  0  0  0
   -4.1527   26.7353    4.1993 C   0  0  0  0  0  0  0  0  0  0  0  0
   -3.1091   26.3000    3.4856 N   0  0  0  0  0  0  0  0  0  0  0  0
   -1.7955   26.2988    4.5122 S   0  0  0  0  0  0  0  0  0  0  0  0
   -2.7040   26.8876    5.8476 C   0  0  0  0  0  0  0  0  0  0  0  0
   -3.9742   27.0638    5.5389 N   0  0  0  0  0  0  0  0  0  0  0  0
   -5.6335   26.0739    2.2835 C   0  0  0  0  0  0  0  0  0  0  0  0
   -5.5147   26.8711    3.5834 C   0  0  0  0  0  0  0  0  0  0  0  0
   -5.8910   28.3362    3.3565 C   0  0  0  0  0  0  0  0  0  0  0  0
 20 21  1  0  0  0
 21 22  1  0  0  0
 21 15  1  0  0  0
 15 16  2  0  0  0
 16 17  1  0  0  0
 17 18  1  0  0  0
 18 14  1  0  0  0
 14  1  1  0  0  0
  1  2  1  0  0  0
  2  3  1  0  0  0
  3  4  1  0  0  0
  4  5  1  0  0  0
  5  6  1  0  0  0
  6  7  1  0  0  0
  7  8  1  0  0  0
  8  9  1  0  0  0
  9 10  1  0  0  0
 10 11  1  0  0  0
 10 12  1  0  0  0
  8 13  1  0  0  0
 18 19  2  0  0  0
 19 15  1  0  0  0
 13  1  1  0  0  0
  8  3  1  0  0  0
 12  3  1  0  0  0
M  END
> <minimizedAffinity>
-8.12644

$$$$
OCNT-2314771


 26 28  0  0  0  0  0  0  0  0999 V2000
   -5.2177   30.1684    7.3091 C   0  0  0  0  0  0  0  0  0  0  0  0
   -4.9241   29.2382    6.4185 N   0  0  0  0  0  0  0  0  0  0  0  0
   -6.0758   28.7226    5.8360 C   0  0  0  0  0  0  0  0  0  0  0  0
   -7.2454   29.3041    6.2788 C   0  0  0  0  0  0  0  0  0  0  0  0
   -6.9052   30.4821    7.4717 S   0  0  0  0  0  0  0  0  0  0  0  0
   -5.9920   27.6905    4.8042 C   0  0  0  0  0  0  0  0  0  0  0  0
   -6.1883   26.3533    5.1920 C   0  0  0  0  0  0  0  0  0  0  0  0
   -6.1219   25.3157    4.2598 C   0  0  0  0  0  0  0  0  0  0  0  0
   -5.8639   25.6063    2.9277 C   0  0  0  0  0  0  0  0  0  0  0  0
   -5.8064   24.5617    2.0533 O   0  0  0  0  0  0  0  0  0  0  0  0
   -5.6756   26.9193    2.5076 C   0  0  0  0  0  0  0  0  0  0  0  0
   -5.7440   27.9568    3.4459 C   0  0  0  0  0  0  0  0  0  0  0  0
   -5.5826   29.2463    3.0096 O   0  0  0  0  0  0  0  0  0  0  0  0
   -5.6158   24.8996    1.1633 H   0  0  0  0  0  0  0  0  0  0  0  0
   -5.5427   29.2572    2.0395 H   0  0  0  0  0  0  0  0  0  0  0  0
   -1.9086   30.9045    9.0021 C   0  0  0  0  0  0  0  0  0  0  0  0
   -2.1667   32.1287    9.6137 C   0  0  0  0  0  0  0  0  0  0  0  0
   -3.4193   32.7309    9.4816 C   0  0  0  0  0  0  0  0  0  0  0  0
   -4.4273   32.1131    8.7374 C   0  0  0  0  0  0  0  0  0  0  0  0
   -4.2006   30.8790    8.1125 C   0  0  0  0  0  0  0  0  0  0  0  0
   -2.9277   30.2928    8.2575 C   0  0  0  0  0  0  0  0  0  0  0  0
    1.3586   29.0804    8.5178 C   0  0  0  0  0  0  0  0  0  0  0  0
    0.1040   29.7657    8.0358 C   0  0  0  0  0  0  0  0  0  0  0  0
   -0.1442   29.8466    6.8382 O   0  0  0  0  0  0  0  0  0  0  0  0
   -0.6750   30.2251    9.0820 N   0  0  0  0  0  0  0  0  0  0  0  0
   -0.3295   30.0505   10.0177 H   0  0  0  0  0  0  0  0  0  0  0  0
 22 23  1  0  0  0
 23 24  2  0  0  0
 23 25  1  0  0  0
 25 16  1  0  0  0
 16 17  2  0  0  0
 17 18  1  0  0  0
 18 19  2  0  0  0
 19 20  1  0  0  0
 20  1  1  0  0  0
  1  2  2  0  0  0
  2  3  1  0  0  0
  3  6  1  0  0  0
  6  7  1  0  0  0
  7  8  2  0  0  0
  8  9  1  0  0  0
  9 10  1  0  0  0
  9 11  2  0  0  0
 11 12  1  0  0  0
 12 13  1  0  0  0
  3  4  2  0  0  0
  4  5  1  0  0  0
 20 21  2  0  0  0
 21 16  1  0  0  0
  5  1  1  0  0  0
 12  6  2  0  0  0
 25 26  1  0  0  0
 10 14  1  0  0  0
 13 15  1  0  0  0
M  END
> <minimizedAffinity>
-9.35887

$$$$
OCNT-2314773


 22 23  0  0  0  0  0  0  0  0999 V2000
   -4.9598   30.7168    6.3656 C   0  0  0  0  0  0  0  0  0  0  0  0
   -5.5921   30.4390    7.3809 O   0  0  0  0  0  0  0  0  0  0  0  0
   -5.3521   30.3553    5.0977 N   0  0  0  0  0  0  0  0  0  0  0  0
   -4.7194   30.6185    4.3476 H   0  0  0  0  0  0  0  0  0  0  0  0
   -3.6048   31.4415    6.4104 C   0  0  0  0  0  0  0  0  0  0  0  0
   -1.1952   28.3303    8.3533 C   0  0  0  0  0  0  0  0  0  0  0  0
   -0.5684   29.6195    7.8131 C   0  0  0  0  0  0  0  0  0  0  0  0
   -0.1860   30.5844    8.9362 C   0  0  0  0  0  0  0  0  0  0  0  0
   -1.4143   31.2445    9.5514 C   0  0  0  0  0  0  0  0  0  0  0  0
   -2.3403   31.8775    8.4900 C   0  0  0  0  0  0  0  0  0  0  0  0
   -3.5536   32.4631    9.2297 C   0  0  0  0  0  0  0  0  0  0  0  0
   -2.7167   30.8710    7.4655 N   0  0  0  0  0  0  0  0  0  0  0  0
   -1.4972   30.3288    6.8174 C   0  0  0  0  0  0  0  0  0  0  0  0
   -6.5237   29.5676    4.8228 C   0  0  0  0  0  0  0  0  0  0  0  0
   -6.1412   28.1671    4.4168 C   0  0  0  0  0  0  0  0  0  0  0  0
   -5.7955   27.8903    3.0858 C   0  0  0  0  0  0  0  0  0  0  0  0
   -5.4620   26.5917    2.6937 C   0  0  0  0  0  0  0  0  0  0  0  0
   -5.4770   25.5529    3.6286 C   0  0  0  0  0  0  0  0  0  0  0  0
   -5.8300   25.8189    4.9556 C   0  0  0  0  0  0  0  0  0  0  0  0
   -6.1640   27.1185    5.3467 C   0  0  0  0  0  0  0  0  0  0  0  0
   -5.1373   24.2189    3.2285 C   0  0  0  0  0  0  0  0  0  0  0  0
   -4.8647   23.1372    2.9078 N   0  0  0  0  0  0  0  0  0  0  0  0
  6  7  1  0  0  0
  7  8  1  0  0  0
  8  9  1  0  0  0
  9 10  1  0  0  0
 10 11  1  0  0  0
 10 12  1  0  0  0
 12  5  1  0  0  0
  5  1  1  0  0  0
  1  2  2  0  0  0
  1  3  1  0  0  0
  3 14  1  0  0  0
 14 15  1  0  0  0
 15 16  1  0  0  0
 16 17  2  0  0  0
 17 18  1  0  0  0
 18 21  1  0  0  0
 21 22  3  0  0  0
 18 19  2  0  0  0
 19 20  1  0  0  0
 12 13  1  0  0  0
 13  7  1  0  0  0
 20 15  2  0  0  0
  3  4  1  0  0  0
M  END
> <minimizedAffinity>
-8.53237

$$$$
OCNT-2314777


 22 25  0  0  0  0  0  0  0  0999 V2000
   -1.4941   28.7323    6.9012 N   0  0  0  0  0  0  0  0  0  0  0  0
   -0.2770   28.2061    7.5265 C   0  0  0  0  0  0  0  0  0  0  0  0
    0.5646   29.3156    8.1625 C   0  0  0  0  0  0  0  0  0  0  0  0
   -0.3197   30.2516    8.9770 C   0  0  0  0  0  0  0  0  0  0  0  0
   -1.4409   30.8773    8.1198 C   0  0  0  0  0  0  0  0  0  0  0  0
   -1.5786   30.1848    6.7494 C   0  0  0  0  0  0  0  0  0  0  0  0
   -6.5533   27.9602    5.8605 C   0  0  0  0  0  0  0  0  0  0  0  0
   -5.9145   28.8977    6.6510 C   0  0  0  0  0  0  0  0  0  0  0  0
   -4.5842   28.9859    6.8383 N   0  0  0  0  0  0  0  0  0  0  0  0
   -3.8172   28.0591    6.1798 C   0  0  0  0  0  0  0  0  0  0  0  0
   -4.3998   27.0855    5.3653 C   0  0  0  0  0  0  0  0  0  0  0  0
   -5.7870   27.0160    5.1889 C   0  0  0  0  0  0  0  0  0  0  0  0
   -3.1529   26.1205    4.7170 S   0  0  0  0  0  0  0  0  0  0  0  0
   -1.9043   26.9054    5.4388 N   0  0  0  0  0  0  0  0  0  0  0  0
   -2.3533   27.9125    6.1955 C   0  0  0  0  0  0  0  0  0  0  0  0
   -2.7966   30.8781    8.8598 C   0  0  0  0  0  0  0  0  0  0  0  0
   -3.5951   32.1397    8.6551 C   0  0  0  0  0  0  0  0  0  0  0  0
   -4.1435   32.4544    7.4147 C   0  0  0  0  0  0  0  0  0  0  0  0
   -4.8632   33.5708    7.1610 N   0  0  0  0  0  0  0  0  0  0  0  0
   -5.0522   34.4159    8.1961 C   0  0  0  0  0  0  0  0  0  0  0  0
   -4.5554   34.1968    9.4699 C   0  0  0  0  0  0  0  0  0  0  0  0
   -3.8167   33.0400    9.6999 C   0  0  0  0  0  0  0  0  0  0  0  0
  7  8  2  0  0  0
  8  9  1  0  0  0
  9 10  2  0  0  0
 10 11  1  0  0  0
 11 12  2  0  0  0
 11 13  1  0  0  0
 13 14  1  0  0  0
 14 15  2  0  0  0
 15  1  1  0  0  0
  1  2  1  0  0  0
  2  3  1  0  0  0
  3  4  1  0  0  0
  4  5  1  0  0  0
  5 16  1  0  0  0
 16 17  1  0  0  0
 17 18  2  0  0  0
 18 19  1  0  0  0
 19 20  2  0  0  0
 20 21  1  0  0  0
 21 22  2  0  0  0
  5  6  1  0  0  0
 12  7  1  0  0  0
  6  1  1  0  0  0
 15 10  1  0  0  0
 22 17  1  0  0  0
M  END
> <minimizedAffinity>
-8.79893

$$$$
OCNT-2314781


 26 30  0  0  0  0  0  0  0  0999 V2000
   -3.9442   27.4557    3.4154 O   0  0  0  0  0  0  0  0  0  0  0  0
   -4.9084   26.9192    3.9646 C   0  0  0  0  0  0  0  0  0  0  0  0
   -5.5907   25.8790    3.3628 N   0  0  0  0  0  0  0  0  0  0  0  0
   -6.2498   24.8019    4.1125 C   0  0  0  0  0  0  0  0  0  0  0  0
   -6.1489   23.4193    3.4593 C   0  0  0  0  0  0  0  0  0  0  0  0
   -6.5908   23.5047    2.0253 C   0  0  0  0  0  0  0  0  0  0  0  0
   -7.3534   22.5045    1.4173 C   0  0  0  0  0  0  0  0  0  0  0  0
   -7.7231   22.6316    0.0785 C   0  0  0  0  0  0  0  0  0  0  0  0
   -7.3219   23.7474   -0.6567 C   0  0  0  0  0  0  0  0  0  0  0  0
   -6.5462   24.7406   -0.0571 C   0  0  0  0  0  0  0  0  0  0  0  0
   -6.1815   24.6289    1.2887 C   0  0  0  0  0  0  0  0  0  0  0  0
   -5.2847   25.6463    1.9495 C   0  0  0  0  0  0  0  0  0  0  0  0
   -5.3425   27.3543    5.1974 N   0  0  0  0  0  0  0  0  0  0  0  0
   -6.7220   27.3392    5.6710 C   0  0  0  0  0  0  0  0  0  0  0  0
   -6.8514   28.5677    6.5658 C   0  0  0  0  0  0  0  0  0  0  0  0
   -5.4294   28.7381    7.1074 C   0  0  0  0  0  0  0  0  0  0  0  0
   -4.5798   28.3889    5.8881 C   0  0  0  0  0  0  0  0  0  0  0  0
   -5.1500   30.0272    7.6892 N   0  0  0  0  0  0  0  0  0  0  0  0
   -6.0056   31.0993    7.7413 C   0  0  0  0  0  0  0  0  0  0  0  0
   -5.4731   32.1286    8.3648 N   0  0  0  0  0  0  0  0  0  0  0  0
   -4.2252   31.7118    8.7228 C   0  0  0  0  0  0  0  0  0  0  0  0
   -3.9936   30.4196    8.3064 C   0  0  0  0  0  0  0  0  0  0  0  0
   -2.7464   29.6476    8.5368 C   0  0  0  0  0  0  0  0  0  0  0  0
   -1.6176   30.6054    8.9749 C   0  0  0  0  0  0  0  0  0  0  0  0
   -2.0937   31.6589    9.9972 C   0  0  0  0  0  0  0  0  0  0  0  0
   -3.2286   32.5436    9.4414 C   0  0  0  0  0  0  0  0  0  0  0  0
  1  2  2  0  0  0
  2  3  1  0  0  0
  3  4  1  0  0  0
  4  5  1  0  0  0
  5  6  1  0  0  0
  6  7  2  0  0  0
  7  8  1  0  0  0
  8  9  2  0  0  0
  9 10  1  0  0  0
 10 11  2  0  0  0
 11 12  1  0  0  0
  2 13  1  0  0  0
 13 14  1  0  0  0
 14 15  1  0  0  0
 15 16  1  0  0  0
 16 18  1  0  0  0
 18 19  1  0  0  0
 19 20  2  0  0  0
 20 21  1  0  0  0
 21 22  2  0  0  0
 22 23  1  0  0  0
 23 24  1  0  0  0
 24 25  1  0  0  0
 25 26  1  0  0  0
 16 17  1  0  0  0
 12  3  1  0  0  0
 17 13  1  0  0  0
 11  6  1  0  0  0
 22 18  1  0  0  0
 26 21  1  0  0  0
M  END
> <minimizedAffinity>
-11.29043

$$$$
OCNT-2314790


 25 27  0  0  0  0  0  0  0  0999 V2000
   -4.1251   27.4198    4.5348 N   0  0  0  0  0  0  0  0  0  0  0  0
   -5.5381   27.4476    4.1118 C   0  0  0  0  0  0  0  0  0  0  0  0
   -5.7422   27.1994    2.5989 C   0  0  0  0  0  0  0  0  0  0  0  0
   -5.1786   25.9039    2.1853 N   0  0  0  0  0  0  0  0  0  0  0  0
   -4.2261   25.2868    3.1214 C   0  0  0  0  0  0  0  0  0  0  0  0
   -3.3653   26.3682    3.8165 C   0  0  0  0  0  0  0  0  0  0  0  0
   -5.9657   25.0303    1.4463 C   0  0  0  0  0  0  0  0  0  0  0  0
   -6.2878   25.3107    0.1129 C   0  0  0  0  0  0  0  0  0  0  0  0
   -7.0618   24.4174   -0.6300 C   0  0  0  0  0  0  0  0  0  0  0  0
   -7.4914   23.2531   -0.0260 C   0  0  0  0  0  0  0  0  0  0  0  0
   -8.2336   22.3685   -0.7031 F   0  0  0  0  0  0  0  0  0  0  0  0
   -7.1318   23.0210    1.2849 C   0  0  0  0  0  0  0  0  0  0  0  0
   -6.3821   23.8771    2.0221 N   0  0  0  0  0  0  0  0  0  0  0  0
   -4.0206   27.2954    6.0033 C   0  0  0  0  0  0  0  0  0  0  0  0
   -3.5508   29.5164    7.0799 N   0  0  0  0  0  0  0  0  0  0  0  0
   -2.1119   29.2878    6.9802 C   0  0  0  0  0  0  0  0  0  0  0  0
   -4.5184   28.5521    6.7539 C   0  0  0  0  0  0  0  0  0  0  0  0
   -5.7064   28.7191    7.0416 O   0  0  0  0  0  0  0  0  0  0  0  0
   -4.5776   34.5591    9.7196 C   0  0  0  0  0  0  0  0  0  0  0  0
   -4.5067   33.1423    9.1542 C   0  0  0  0  0  0  0  0  0  0  0  0
   -3.1578   32.4887    9.4606 C   0  0  0  0  0  0  0  0  0  0  0  0
   -3.1198   31.0238    9.0140 C   0  0  0  0  0  0  0  0  0  0  0  0
   -4.0125   30.7266    7.7915 C   0  0  0  0  0  0  0  0  0  0  0  0
   -4.1512   31.9648    6.8967 C   0  0  0  0  0  0  0  0  0  0  0  0
   -4.7889   33.1424    7.6419 C   0  0  0  0  0  0  0  0  0  0  0  0
 19 20  1  0  0  0
 20 21  1  0  0  0
 21 22  1  0  0  0
 22 23  1  0  0  0
 23 15  1  0  0  0
 15 16  1  0  0  0
 15 17  1  0  0  0
 17 18  2  0  0  0
 17 14  1  0  0  0
 14  1  1  0  0  0
  1  2  1  0  0  0
  2  3  1  0  0  0
  3  4  1  0  0  0
  4  7  1  0  0  0
  7  8  2  0  0  0
  8  9  1  0  0  0
  9 10  2  0  0  0
 10 11  1  0  0  0
 10 12  1  0  0  0
 12 13  2  0  0  0
  4  5  1  0  0  0
  5  6  1  0  0  0
 23 24  1  0  0  0
 24 25  1  0  0  0
 25 20  1  0  0  0
  6  1  1  0  0  0
 13  7  1  0  0  0
M  END
> <minimizedAffinity>
-9.24343

$$$$
OCNT-2314795


 25 27  0  0  0  0  0  0  0  0999 V2000
   -5.3482   29.1005    6.6466 C   0  0  0  0  0  0  0  0  0  0  0  0
   -6.3888   28.5661    7.0129 O   0  0  0  0  0  0  0  0  0  0  0  0
   -4.5484   28.6553    5.6050 N   0  0  0  0  0  0  0  0  0  0  0  0
   -3.6700   29.1362    5.4586 H   0  0  0  0  0  0  0  0  0  0  0  0
   -4.8102   27.5635    4.7505 C   0  0  0  0  0  0  0  0  0  0  0  0
   -5.5392   27.8110    3.5864 C   0  0  0  0  0  0  0  0  0  0  0  0
   -5.8378   26.7687    2.7029 C   0  0  0  0  0  0  0  0  0  0  0  0
   -5.3967   25.4856    3.0096 C   0  0  0  0  0  0  0  0  0  0  0  0
   -4.6896   25.2186    4.1358 N   0  0  0  0  0  0  0  0  0  0  0  0
   -4.4119   26.2512    4.9747 C   0  0  0  0  0  0  0  0  0  0  0  0
   -5.6760   24.3928    2.1421 N   0  0  0  0  0  0  0  0  0  0  0  0
   -5.3847   23.0690    2.3973 C   0  0  0  0  0  0  0  0  0  0  0  0
   -5.8237   22.3655    1.3027 C   0  0  0  0  0  0  0  0  0  0  0  0
   -6.3774   23.2064    0.3770 N   0  0  0  0  0  0  0  0  0  0  0  0
   -6.2755   24.4083    0.9034 C   0  0  0  0  0  0  0  0  0  0  0  0
   -3.8829   31.1431    6.3850 C   0  0  0  0  0  0  0  0  0  0  0  0
   -4.7893   30.3524    7.3299 C   0  0  0  0  0  0  0  0  0  0  0  0
   -4.1056   30.0315    8.6737 C   0  0  0  0  0  0  0  0  0  0  0  0
   -2.6087   29.8297    8.6200 C   0  0  0  0  0  0  0  0  0  0  0  0
   -2.0603   28.6585    8.0744 C   0  0  0  0  0  0  0  0  0  0  0  0
   -0.6764   28.4830    8.0234 C   0  0  0  0  0  0  0  0  0  0  0  0
    0.1601   29.4745    8.5199 C   0  0  0  0  0  0  0  0  0  0  0  0
    1.4878   29.3036    8.4727 F   0  0  0  0  0  0  0  0  0  0  0  0
   -0.3609   30.6398    9.0667 C   0  0  0  0  0  0  0  0  0  0  0  0
   -1.7442   30.8183    9.1174 C   0  0  0  0  0  0  0  0  0  0  0  0
 16 17  1  0  0  0
 17 18  1  0  0  0
 18 19  1  0  0  0
 19 20  1  0  0  0
 20 21  2  0  0  0
 21 22  1  0  0  0
 22 23  1  0  0  0
 22 24  2  0  0  0
 24 25  1  0  0  0
 17  1  1  0  0  0
  1  2  2  0  0  0
  1  3  1  0  0  0
  3  5  1  0  0  0
  5  6  2  0  0  0
  6  7  1  0  0  0
  7  8  2  0  0  0
  8 11  1  0  0  0
 11 12  1  0  0  0
 12 13  2  0  0  0
 13 14  1  0  0  0
 14 15  2  0  0  0
  8  9  1  0  0  0
  9 10  2  0  0  0
 25 19  2  0  0  0
 10  5  1  0  0  0
 15 11  1  0  0  0
  3  4  1  0  0  0
M  END
> <minimizedAffinity>
-8.90608

$$$$
OCNT-2314796


 31 35  0  0  0  0  0  0  0  0999 V2000
   -5.1333   29.3283    6.6866 N   0  0  0  0  0  0  0  0  0  0  0  0
   -5.9486   29.6185    7.2296 H   0  0  0  0  0  0  0  0  0  0  0  0
   -5.4854   28.1660    5.8546 C   0  0  0  0  0  0  0  0  0  0  0  0
   -4.2198   27.3665    5.5514 C   0  0  0  0  0  0  0  0  0  0  0  0
   -4.5856   26.0744    4.8196 C   0  0  0  0  0  0  0  0  0  0  0  0
   -5.6098   26.2926    3.7790 N   0  0  0  0  0  0  0  0  0  0  0  0
   -5.8223   27.6764    3.3554 C   0  0  0  0  0  0  0  0  0  0  0  0
   -6.1935   28.5614    4.5484 C   0  0  0  0  0  0  0  0  0  0  0  0
   -5.7056   25.2591    2.8312 C   0  0  0  0  0  0  0  0  0  0  0  0
   -5.8370   25.5042    1.4418 C   0  0  0  0  0  0  0  0  0  0  0  0
   -5.9402   24.4649    0.5051 C   0  0  0  0  0  0  0  0  0  0  0  0
   -5.9173   23.1747    0.9754 C   0  0  0  0  0  0  0  0  0  0  0  0
   -6.0075   22.0473    0.2225 O   0  0  0  0  0  0  0  0  0  0  0  0
   -5.9411   21.0339    1.2471 C   0  0  0  0  0  0  0  0  0  0  0  0
   -5.8041   21.5715    2.5787 O   0  0  0  0  0  0  0  0  0  0  0  0
   -5.7992   22.9064    2.3145 C   0  0  0  0  0  0  0  0  0  0  0  0
   -5.6953   23.9146    3.2530 C   0  0  0  0  0  0  0  0  0  0  0  0
   -4.0169   29.0438    7.6137 C   0  0  0  0  0  0  0  0  0  0  0  0
   -2.8552   30.1036    7.5435 C   0  0  0  0  0  0  0  0  0  0  0  0
   -4.9445   35.0602    9.3439 F   0  0  0  0  0  0  0  0  0  0  0  0
   -4.4442   33.8915    8.9214 C   0  0  0  0  0  0  0  0  0  0  0  0
   -4.5515   33.5473    7.5792 C   0  0  0  0  0  0  0  0  0  0  0  0
   -4.0325   32.3300    7.1362 C   0  0  0  0  0  0  0  0  0  0  0  0
   -3.4047   31.4529    8.0387 C   0  0  0  0  0  0  0  0  0  0  0  0
   -3.3090   31.8240    9.3927 C   0  0  0  0  0  0  0  0  0  0  0  0
   -3.8278   33.0423    9.8318 C   0  0  0  0  0  0  0  0  0  0  0  0
   -1.6454   29.7090    8.3267 N   0  0  0  0  0  0  0  0  0  0  0  0
   -1.3153   28.2761    8.2404 C   0  0  0  0  0  0  0  0  0  0  0  0
   -0.5578   28.0989    6.9340 C   0  0  0  0  0  0  0  0  0  0  0  0
    0.0719   29.4579    6.6682 C   0  0  0  0  0  0  0  0  0  0  0  0
   -0.4157   30.3450    7.8061 C   0  0  0  0  0  0  0  0  0  0  0  0
 20 21  1  0  0  0
 21 22  1  0  0  0
 22 23  2  0  0  0
 23 24  1  0  0  0
 24 19  1  0  0  0
 19 18  1  0  0  0
 18  1  1  0  0  0
  1  3  1  0  0  0
  3  4  1  0  0  0
  4  5  1  0  0  0
  5  6  1  0  0  0
  6  9  1  0  0  0
  9 10  1  0  0  0
 10 11  2  0  0  0
 11 12  1  0  0  0
 12 13  1  0  0  0
 13 14  1  0  0  0
 14 15  1  0  0  0
 15 16  1  0  0  0
 16 17  1  0  0  0
  6  7  1  0  0  0
  7  8  1  0  0  0
 19 27  1  0  0  0
 27 28  1  0  0  0
 28 29  1  0  0  0
 29 30  1  0  0  0
 30 31  1  0  0  0
 24 25  2  0  0  0
 25 26  1  0  0  0
 26 21  2  0  0  0
  8  3  1  0  0  0
 31 27  1  0  0  0
 17  9  2  0  0  0
 16 12  2  0  0  0
  1  2  1  0  0  0
M  END
> <minimizedAffinity>
-10.21931

$$$$
OCNT-2314799


 29 32  0  0  0  0  0  0  0  0999 V2000
   -5.7331   26.9794    4.5904 C   0  0  0  0  0  0  0  0  0  0  0  0
   -5.4168   27.7899    3.7298 O   0  0  0  0  0  0  0  0  0  0  0  0
   -6.0733   27.2285    5.9050 N   0  0  0  0  0  0  0  0  0  0  0  0
   -6.2465   26.4205    6.4909 H   0  0  0  0  0  0  0  0  0  0  0  0
   -5.6832   22.5169    6.1755 O   0  0  0  0  0  0  0  0  0  0  0  0
   -5.7385   23.2507    5.1960 C   0  0  0  0  0  0  0  0  0  0  0  0
   -5.6743   24.7172    5.3460 C   0  0  0  0  0  0  0  0  0  0  0  0
   -5.7440   25.5235    4.2759 C   0  0  0  0  0  0  0  0  0  0  0  0
   -5.8447   24.9657    2.9167 C   0  0  0  0  0  0  0  0  0  0  0  0
   -5.8382   25.7633    1.7634 C   0  0  0  0  0  0  0  0  0  0  0  0
   -5.9440   25.1823    0.4970 C   0  0  0  0  0  0  0  0  0  0  0  0
   -6.0477   23.7983    0.3660 C   0  0  0  0  0  0  0  0  0  0  0  0
   -6.0341   22.9909    1.5034 C   0  0  0  0  0  0  0  0  0  0  0  0
   -6.1578   21.1108    1.2744 Br  0  0  0  0  0  0  0  0  0  0  0  0
   -5.9264   23.5697    2.7753 C   0  0  0  0  0  0  0  0  0  0  0  0
   -5.8824   22.7678    3.9277 N   0  0  0  0  0  0  0  0  0  0  0  0
   -5.9226   21.7594    3.8341 H   0  0  0  0  0  0  0  0  0  0  0  0
   -6.1857   28.4834    6.5413 C   0  0  0  0  0  0  0  0  0  0  0  0
   -7.2894   29.2725    6.1953 C   0  0  0  0  0  0  0  0  0  0  0  0
   -7.4701   30.5287    6.7726 C   0  0  0  0  0  0  0  0  0  0  0  0
   -6.5450   31.0026    7.6994 C   0  0  0  0  0  0  0  0  0  0  0  0
   -5.4382   30.2300    8.0564 C   0  0  0  0  0  0  0  0  0  0  0  0
   -5.2639   28.9708    7.4745 C   0  0  0  0  0  0  0  0  0  0  0  0
   -4.6139   30.8212    8.9733 O   0  0  0  0  0  0  0  0  0  0  0  0
   -3.3062   31.2075    8.5697 C   0  0  0  0  0  0  0  0  0  0  0  0
   -2.3243   30.1023    8.9549 C   0  0  0  0  0  0  0  0  0  0  0  0
   -0.9667   30.7918    8.9816 C   0  0  0  0  0  0  0  0  0  0  0  0
   -1.2538   32.2709    9.2416 C   0  0  0  0  0  0  0  0  0  0  0  0
   -2.7671   32.3870    9.3737 C   0  0  0  0  0  0  0  0  0  0  0  0
  5  6  2  0  0  0
  6  7  1  0  0  0
  7  8  2  0  0  0
  8  1  1  0  0  0
  1  2  2  0  0  0
  1  3  1  0  0  0
  3 18  1  0  0  0
 18 19  2  0  0  0
 19 20  1  0  0  0
 20 21  2  0  0  0
 21 22  1  0  0  0
 22 24  1  0  0  0
 24 25  1  0  0  0
 25 26  1  0  0  0
 26 27  1  0  0  0
 27 28  1  0  0  0
 28 29  1  0  0  0
 22 23  2  0  0  0
  8  9  1  0  0  0
  9 10  2  0  0  0
 10 11  1  0  0  0
 11 12  2  0  0  0
 12 13  1  0  0  0
 13 14  1  0  0  0
 13 15  2  0  0  0
 15 16  1  0  0  0
 16  6  1  0  0  0
 23 18  1  0  0  0
 15  9  1  0  0  0
 29 25  1  0  0  0
  3  4  1  0  0  0
 16 17  1  0  0  0
M  END
> <minimizedAffinity>
-10.31583

$$$$
OCNT-2314801


 24 26  0  0  0  0  0  0  0  0999 V2000
   -1.9638   27.2759    7.4673 C   0  0  0  0  0  0  0  0  0  0  0  0
   -1.2573   26.3629    5.3599 O   0  0  0  0  0  0  0  0  0  0  0  0
   -2.1997   26.7325    6.0545 C   0  0  0  0  0  0  0  0  0  0  0  0
   -3.5375   26.7275    5.6997 N   0  0  0  0  0  0  0  0  0  0  0  0
   -4.1734   27.0302    6.4317 H   0  0  0  0  0  0  0  0  0  0  0  0
   -4.1124   26.3207    4.4827 C   0  0  0  0  0  0  0  0  0  0  0  0
   -3.7756   25.1404    3.8165 C   0  0  0  0  0  0  0  0  0  0  0  0
   -4.3926   24.8094    2.6044 C   0  0  0  0  0  0  0  0  0  0  0  0
   -5.3492   25.6587    2.0558 C   0  0  0  0  0  0  0  0  0  0  0  0
   -6.1058   25.2507    0.5665 Cl  0  0  0  0  0  0  0  0  0  0  0  0
   -5.6943   26.8373    2.7087 C   0  0  0  0  0  0  0  0  0  0  0  0
   -5.0759   27.1674    3.9183 C   0  0  0  0  0  0  0  0  0  0  0  0
   -2.8997   28.3125    7.8031 O   0  0  0  0  0  0  0  0  0  0  0  0
   -2.2857   29.3996    8.3644 C   0  0  0  0  0  0  0  0  0  0  0  0
   -0.8856   29.3805    8.4539 C   0  0  0  0  0  0  0  0  0  0  0  0
   -0.1982   30.4736    8.9727 C   0  0  0  0  0  0  0  0  0  0  0  0
   -0.9055   31.5874    9.4101 C   0  0  0  0  0  0  0  0  0  0  0  0
   -2.3034   31.5999    9.3555 C   0  0  0  0  0  0  0  0  0  0  0  0
   -3.0174   30.4952    8.8551 C   0  0  0  0  0  0  0  0  0  0  0  0
   -4.4457   30.5267    8.8753 N   0  0  0  0  0  0  0  0  0  0  0  0
   -5.2721   30.0083    9.8554 C   0  0  0  0  0  0  0  0  0  0  0  0
   -6.5619   30.2539    9.4490 C   0  0  0  0  0  0  0  0  0  0  0  0
   -6.5741   30.8964    8.2484 N   0  0  0  0  0  0  0  0  0  0  0  0
   -5.3062   31.0368    7.9247 C   0  0  0  0  0  0  0  0  0  0  0  0
  2  3  2  0  0  0
  3  1  1  0  0  0
  1 13  1  0  0  0
 13 14  1  0  0  0
 14 15  2  0  0  0
 15 16  1  0  0  0
 16 17  2  0  0  0
 17 18  1  0  0  0
 18 19  2  0  0  0
 19 20  1  0  0  0
 20 21  1  0  0  0
 21 22  2  0  0  0
 22 23  1  0  0  0
 23 24  2  0  0  0
  3  4  1  0  0  0
  4  6  1  0  0  0
  6  7  1  0  0  0
  7  8  2  0  0  0
  8  9  1  0  0  0
  9 10  1  0  0  0
  9 11  2  0  0  0
 11 12  1  0  0  0
 19 14  1  0  0  0
 24 20  1  0  0  0
 12  6  2  0  0  0
  4  5  1  0  0  0
M  END
> <minimizedAffinity>
-8.59946

$$$$
OCNT-2314802


 28 31  0  0  0  0  0  0  0  0999 V2000
   -3.6546   27.4910    5.2267 N   0  0  0  0  0  0  0  0  0  0  0  0
   -5.0006   27.7429    5.4272 C   0  0  0  0  0  0  0  0  0  0  0  0
   -5.9001   26.9284    5.2474 O   0  0  0  0  0  0  0  0  0  0  0  0
   -3.1241   28.3374    5.0328 H   0  0  0  0  0  0  0  0  0  0  0  0
   -3.1955   26.2802    4.5490 C   0  0  0  0  0  0  0  0  0  0  0  0
   -1.6906   26.0622    4.7188 C   0  0  0  0  0  0  0  0  0  0  0  0
   -3.5181   26.3294    3.0374 C   0  0  0  0  0  0  0  0  0  0  0  0
   -7.6650   20.9049    3.1619 C   0  0  0  0  0  0  0  0  0  0  0  0
   -6.4937   21.0997    2.2005 C   0  0  0  0  0  0  0  0  0  0  0  0
   -5.1954   21.5034    2.9202 C   0  0  0  0  0  0  0  0  0  0  0  0
   -5.1675   22.9473    2.5974 C   0  0  0  0  0  0  0  0  0  0  0  0
   -4.3262   23.9381    3.0756 C   0  0  0  0  0  0  0  0  0  0  0  0
   -4.4407   25.2349    2.5459 C   0  0  0  0  0  0  0  0  0  0  0  0
   -5.4087   25.4971    1.5497 C   0  0  0  0  0  0  0  0  0  0  0  0
   -6.2509   24.4831    1.0811 C   0  0  0  0  0  0  0  0  0  0  0  0
   -6.1096   23.2223    1.6218 C   0  0  0  0  0  0  0  0  0  0  0  0
   -6.8472   22.1320    1.2411 O   0  0  0  0  0  0  0  0  0  0  0  0
   -5.2931   29.1637    5.8573 C   0  0  0  0  0  0  0  0  0  0  0  0
   -4.0742   29.7123    6.5850 C   0  0  0  0  0  0  0  0  0  0  0  0
   -4.0409   31.2506    6.5671 C   0  0  0  0  0  0  0  0  0  0  0  0
   -2.7922   31.7843    7.1349 N   0  0  0  0  0  0  0  0  0  0  0  0
   -2.3001   30.8775    8.1973 C   0  0  0  0  0  0  0  0  0  0  0  0
   -1.0165   30.1523    7.6949 C   0  0  0  0  0  0  0  0  0  0  0  0
   -0.3355   30.5691    9.0183 C   0  0  0  0  0  0  0  0  0  0  0  0
   -1.3715   31.7098    9.1266 C   0  0  0  0  0  0  0  0  0  0  0  0
   -3.3698   30.0250    8.8722 C   0  0  0  0  0  0  0  0  0  0  0  0
   -4.1128   29.2217    7.9360 O   0  0  0  0  0  0  0  0  0  0  0  0
   -2.1262   31.9455    6.3790 H   0  0  0  0  0  0  0  0  0  0  0  0
  8  9  1  0  0  0
  9 10  1  0  0  0
 10 11  1  0  0  0
 11 12  1  0  0  0
 12 13  2  0  0  0
 13  7  1  0  0  0
  7  5  1  0  0  0
  5  6  1  0  0  0
  5  1  1  0  0  0
  1  2  1  0  0  0
  2  3  2  0  0  0
  2 18  1  0  0  0
 18 19  1  0  0  0
 19 20  1  0  0  0
 20 21  1  0  0  0
 21 22  1  0  0  0
 22 23  1  0  0  0
 23 24  1  0  0  0
 24 25  1  0  0  0
 22 26  1  0  0  0
 26 27  1  0  0  0
 13 14  1  0  0  0
 14 15  2  0  0  0
 15 16  1  0  0  0
 16 17  1  0  0  0
 17  9  1  0  0  0
 16 11  2  0  0  0
 27 19  1  0  0  0
 25 22  1  0  0  0
  1  4  1  0  0  0
 21 28  1  0  0  0
M  END
> <minimizedAffinity>
-9.94413

$$$$
OCNT-2314804


 25 27  0  0  0  0  0  0  0  0999 V2000
   -5.8273   27.6809    5.6258 C   0  0  0  0  0  0  0  0  0  0  0  0
   -4.8494   28.4319    6.0792 N   0  0  0  0  0  0  0  0  0  0  0  0
   -5.4606   29.1819    7.0602 C   0  0  0  0  0  0  0  0  0  0  0  0
   -6.7653   28.9065    7.2168 N   0  0  0  0  0  0  0  0  0  0  0  0
   -7.0102   27.9168    6.2694 O   0  0  0  0  0  0  0  0  0  0  0  0
   -5.8664   24.7259    2.5193 C   0  0  0  0  0  0  0  0  0  0  0  0
   -5.9666   24.3369    3.8542 C   0  0  0  0  0  0  0  0  0  0  0  0
   -5.9540   25.3000    4.8741 C   0  0  0  0  0  0  0  0  0  0  0  0
   -5.8411   26.6689    4.5785 C   0  0  0  0  0  0  0  0  0  0  0  0
   -5.7420   27.0354    3.2331 C   0  0  0  0  0  0  0  0  0  0  0  0
   -5.6301   28.3244    2.8779 F   0  0  0  0  0  0  0  0  0  0  0  0
   -5.7538   26.0816    2.2154 C   0  0  0  0  0  0  0  0  0  0  0  0
   -6.6627   24.2805    0.3226 C   0  0  0  0  0  0  0  0  0  0  0  0
   -5.8661   23.8938    1.4358 O   0  0  0  0  0  0  0  0  0  0  0  0
   -4.7316   30.1732    7.8449 C   0  0  0  0  0  0  0  0  0  0  0  0
   -3.6583   29.7756    8.6572 C   0  0  0  0  0  0  0  0  0  0  0  0
   -2.9455   30.7117    9.4100 C   0  0  0  0  0  0  0  0  0  0  0  0
   -3.3019   32.0595    9.3666 C   0  0  0  0  0  0  0  0  0  0  0  0
   -4.3783   32.4723    8.5721 C   0  0  0  0  0  0  0  0  0  0  0  0
   -5.0815   31.5311    7.8061 C   0  0  0  0  0  0  0  0  0  0  0  0
   -4.7933   33.8979    8.4918 C   0  0  0  0  0  0  0  0  0  0  0  0
   -5.3219   34.3348    7.3084 N   0  0  0  0  0  0  0  0  0  0  0  0
   -4.6395   34.6679    9.4306 O   0  0  0  0  0  0  0  0  0  0  0  0
   -5.1919   33.8279    6.4451 H   0  0  0  0  0  0  0  0  0  0  0  0
   -5.4695   35.3341    7.2398 H   0  0  0  0  0  0  0  0  0  0  0  0
 13 14  1  0  0  0
 14  6  1  0  0  0
  6  7  1  0  0  0
  7  8  2  0  0  0
  8  9  1  0  0  0
  9  1  1  0  0  0
  1  2  2  0  0  0
  2  3  1  0  0  0
  3 15  1  0  0  0
 15 16  2  0  0  0
 16 17  1  0  0  0
 17 18  2  0  0  0
 18 19  1  0  0  0
 19 21  1  0  0  0
 21 22  1  0  0  0
 21 23  2  0  0  0
 19 20  2  0  0  0
  3  4  2  0  0  0
  4  5  1  0  0  0
  9 10  2  0  0  0
 10 11  1  0  0  0
 10 12  1  0  0  0
 12  6  2  0  0  0
  5  1  1  0  0  0
 20 15  1  0  0  0
 22 24  1  0  0  0
 22 25  1  0  0  0
M  END
> <minimizedAffinity>
-9.01537

$$$$
OCNT-2314807


 23 25  0  0  0  0  0  0  0  0999 V2000
   -0.3438   27.4796    7.0096 N   0  0  0  0  0  0  0  0  0  0  0  0
    0.1956   26.7842    7.5214 H   0  0  0  0  0  0  0  0  0  0  0  0
   -1.0231   26.9414    5.9642 C   0  0  0  0  0  0  0  0  0  0  0  0
   -0.4162   26.3217    4.9749 N   0  0  0  0  0  0  0  0  0  0  0  0
   -1.2890   25.8407    4.0198 N   0  0  0  0  0  0  0  0  0  0  0  0
   -2.5440   26.0935    4.3229 C   0  0  0  0  0  0  0  0  0  0  0  0
   -2.7400   26.9540    5.7943 S   0  0  0  0  0  0  0  0  0  0  0  0
   -3.7484   25.6479    3.4142 C   0  0  0  0  0  0  0  0  0  0  0  0
   -3.9004   24.3847    2.9938 N   0  0  0  0  0  0  0  0  0  0  0  0
   -5.0536   24.3769    2.2295 O   0  0  0  0  0  0  0  0  0  0  0  0
   -5.5798   25.6247    2.1977 C   0  0  0  0  0  0  0  0  0  0  0  0
   -4.7929   26.4725    2.9321 C   0  0  0  0  0  0  0  0  0  0  0  0
    0.3362   28.7526    6.8799 C   0  0  0  0  0  0  0  0  0  0  0  0
   -2.2665   31.4336    7.5214 C   0  0  0  0  0  0  0  0  0  0  0  0
   -1.5471   30.4424    6.8698 C   0  0  0  0  0  0  0  0  0  0  0  0
   -0.4871   29.8283    7.5427 C   0  0  0  0  0  0  0  0  0  0  0  0
   -0.2010   30.2435    8.8471 C   0  0  0  0  0  0  0  0  0  0  0  0
   -0.9836   31.2347    9.4165 C   0  0  0  0  0  0  0  0  0  0  0  0
   -2.0180   31.8309    8.7850 N   0  0  0  0  0  0  0  0  0  0  0  0
   -3.3183   31.9799    6.8266 O   0  0  0  0  0  0  0  0  0  0  0  0
   -4.7767   33.6325    7.2991 F   0  0  0  0  0  0  0  0  0  0  0  0
   -4.3611   32.3990    7.6847 C   0  0  0  0  0  0  0  0  0  0  0  0
   -5.4115   31.5629    7.4557 F   0  0  0  0  0  0  0  0  0  0  0  0
 21 22  1  0  0  0
 22 23  1  0  0  0
 22 20  1  0  0  0
 20 14  1  0  0  0
 14 15  2  0  0  0
 15 16  1  0  0  0
 16 13  1  0  0  0
 13  1  1  0  0  0
  1  3  1  0  0  0
  3  4  2  0  0  0
  4  5  1  0  0  0
  5  6  2  0  0  0
  6  8  1  0  0  0
  8  9  2  0  0  0
  9 10  1  0  0  0
 10 11  1  0  0  0
 11 12  2  0  0  0
  6  7  1  0  0  0
 16 17  2  0  0  0
 17 18  1  0  0  0
 18 19  2  0  0  0
 19 14  1  0  0  0
  7  3  1  0  0  0
 12  8  1  0  0  0
  1  2  1  0  0  0
M  END
> <minimizedAffinity>
-7.68591

$$$$
OCNT-2314812


 22 25  0  0  0  0  0  0  0  0999 V2000
   -2.4016   26.7896    7.0767 N   0  0  0  0  0  0  0  0  0  0  0  0
   -2.2835   25.8664    7.4860 H   0  0  0  0  0  0  0  0  0  0  0  0
   -6.0717   28.2039    4.9376 C   0  0  0  0  0  0  0  0  0  0  0  0
   -5.0667   27.9038    5.8309 C   0  0  0  0  0  0  0  0  0  0  0  0
   -3.9825   27.1738    5.2265 C   0  0  0  0  0  0  0  0  0  0  0  0
   -2.7729   26.6481    5.7289 C   0  0  0  0  0  0  0  0  0  0  0  0
   -1.9469   26.0030    4.8718 N   0  0  0  0  0  0  0  0  0  0  0  0
   -2.3150   25.8782    3.5876 C   0  0  0  0  0  0  0  0  0  0  0  0
   -3.4356   26.3188    3.0097 N   0  0  0  0  0  0  0  0  0  0  0  0
   -4.2308   26.9612    3.8792 C   0  0  0  0  0  0  0  0  0  0  0  0
   -5.7218   27.6156    3.3688 S   0  0  0  0  0  0  0  0  0  0  0  0
   -1.1356   27.5149    7.2430 C   0  0  0  0  0  0  0  0  0  0  0  0
   -1.2375   28.8218    7.9888 C   0  0  0  0  0  0  0  0  0  0  0  0
   -2.4349   29.2751    8.3981 N   0  0  0  0  0  0  0  0  0  0  0  0
   -2.1415   30.4064    9.0709 N   0  0  0  0  0  0  0  0  0  0  0  0
   -0.8089   30.7025    9.0701 C   0  0  0  0  0  0  0  0  0  0  0  0
   -0.1922   29.6898    8.3775 C   0  0  0  0  0  0  0  0  0  0  0  0
   -3.1942   31.1729    9.7162 C   0  0  0  0  0  0  0  0  0  0  0  0
   -3.1801   32.6629    9.3354 C   0  0  0  0  0  0  0  0  0  0  0  0
   -4.4202   32.8608    8.4744 C   0  0  0  0  0  0  0  0  0  0  0  0
   -5.4269   31.9043    9.0894 C   0  0  0  0  0  0  0  0  0  0  0  0
   -4.6027   30.6566    9.3690 C   0  0  0  0  0  0  0  0  0  0  0  0
  3  4  2  0  0  0
  4  5  1  0  0  0
  5  6  2  0  0  0
  6  1  1  0  0  0
  1 12  1  0  0  0
 12 13  1  0  0  0
 13 14  2  0  0  0
 14 15  1  0  0  0
 15 18  1  0  0  0
 18 19  1  0  0  0
 19 20  1  0  0  0
 20 21  1  0  0  0
 21 22  1  0  0  0
 15 16  1  0  0  0
 16 17  2  0  0  0
  6  7  1  0  0  0
  7  8  2  0  0  0
  8  9  1  0  0  0
  9 10  2  0  0  0
 10 11  1  0  0  0
 11  3  1  0  0  0
 10  5  1  0  0  0
 17 13  1  0  0  0
 22 18  1  0  0  0
  1  2  1  0  0  0
M  END
> <minimizedAffinity>
-8.20366

$$$$
OCNT-2314816


 22 24  0  0  0  0  0  0  0  0999 V2000
   -0.1600   27.5870    6.9690 N   0  0  0  0  0  0  0  0  0  0  0  0
    0.6607   27.0338    7.2141 H   0  0  0  0  0  0  0  0  0  0  0  0
   -2.9338   26.3880    4.9015 C   0  0  0  0  0  0  0  0  0  0  0  0
   -2.2821   25.8116    3.8667 N   0  0  0  0  0  0  0  0  0  0  0  0
   -0.9418   25.8554    3.9210 C   0  0  0  0  0  0  0  0  0  0  0  0
   -0.2007   26.4009    4.8999 N   0  0  0  0  0  0  0  0  0  0  0  0
   -0.8700   26.9488    5.9336 C   0  0  0  0  0  0  0  0  0  0  0  0
   -2.2603   26.9702    5.9593 C   0  0  0  0  0  0  0  0  0  0  0  0
   -2.9275   27.5194    6.9865 F   0  0  0  0  0  0  0  0  0  0  0  0
   -5.0003   27.0658    3.6624 C   0  0  0  0  0  0  0  0  0  0  0  0
   -4.4372   26.3474    4.8787 C   0  0  0  0  0  0  0  0  0  0  0  0
    0.2277   28.9654    6.6770 C   0  0  0  0  0  0  0  0  0  0  0  0
   -0.6595   29.9117    7.4630 C   0  0  0  0  0  0  0  0  0  0  0  0
   -0.3199   30.2760    8.7613 C   0  0  0  0  0  0  0  0  0  0  0  0
   -1.1342   31.1774    9.4386 C   0  0  0  0  0  0  0  0  0  0  0  0
   -2.2585   31.7117    8.8045 C   0  0  0  0  0  0  0  0  0  0  0  0
   -3.1647   32.6543    9.5496 C   0  0  0  0  0  0  0  0  0  0  0  0
   -4.1203   33.4216    8.6370 C   0  0  0  0  0  0  0  0  0  0  0  0
   -4.7679   32.4804    7.6285 C   0  0  0  0  0  0  0  0  0  0  0  0
   -3.7036   31.8538    6.7312 C   0  0  0  0  0  0  0  0  0  0  0  0
   -2.5323   31.2969    7.4985 C   0  0  0  0  0  0  0  0  0  0  0  0
   -1.7428   30.4245    6.8231 N   0  0  0  0  0  0  0  0  0  0  0  0
 10 11  1  0  0  0
 11  3  1  0  0  0
  3  4  2  0  0  0
  4  5  1  0  0  0
  5  6  2  0  0  0
  6  7  1  0  0  0
  7  1  1  0  0  0
  1 12  1  0  0  0
 12 13  1  0  0  0
 13 14  1  0  0  0
 14 15  2  0  0  0
 15 16  1  0  0  0
 16 17  1  0  0  0
 17 18  1  0  0  0
 18 19  1  0  0  0
 19 20  1  0  0  0
 20 21  1  0  0  0
 21 22  1  0  0  0
  7  8  2  0  0  0
  8  9  1  0  0  0
  8  3  1  0  0  0
 22 13  2  0  0  0
 21 16  2  0  0  0
  1  2  1  0  0  0
M  END
> <minimizedAffinity>
-8.64495

$$$$
