OCNT-2311653


 26 28  0  0  0  0  0  0  0  0999 V2000
   -3.8368   28.1671    5.9572 O   0  0  0  0  0  0  0  0  0  0  0  0
   -4.9595   28.3516    6.4183 C   0  0  0  0  0  0  0  0  0  0  0  0
   -5.1931   28.7384    7.7194 N   0  0  0  0  0  0  0  0  0  0  0  0
   -6.1024   29.1262    7.9401 H   0  0  0  0  0  0  0  0  0  0  0  0
   -6.2151   28.1710    5.5896 C   0  0  0  0  0  0  0  0  0  0  0  0
   -6.0838   27.0455    4.5972 C   0  0  0  0  0  0  0  0  0  0  0  0
   -6.1668   25.7083    5.0106 C   0  0  0  0  0  0  0  0  0  0  0  0
   -6.0228   24.6770    4.0803 C   0  0  0  0  0  0  0  0  0  0  0  0
   -5.7955   24.9830    2.7424 C   0  0  0  0  0  0  0  0  0  0  0  0
   -5.6550   23.9913    1.8536 F   0  0  0  0  0  0  0  0  0  0  0  0
   -5.6989   26.2990    2.3152 C   0  0  0  0  0  0  0  0  0  0  0  0
   -5.8335   27.3184    3.2484 C   0  0  0  0  0  0  0  0  0  0  0  0
   -5.6996   28.5901    2.8433 F   0  0  0  0  0  0  0  0  0  0  0  0
   -4.0885   29.1048    8.5736 C   0  0  0  0  0  0  0  0  0  0  0  0
   -3.9650   30.6059    8.6835 C   0  0  0  0  0  0  0  0  0  0  0  0
   -5.1223   31.3481    8.9874 C   0  0  0  0  0  0  0  0  0  0  0  0
   -5.0815   32.7383    9.0737 C   0  0  0  0  0  0  0  0  0  0  0  0
   -3.8858   33.4114    8.8480 C   0  0  0  0  0  0  0  0  0  0  0  0
   -2.7326   32.6926    8.5326 C   0  0  0  0  0  0  0  0  0  0  0  0
   -2.7498   31.2880    8.4420 C   0  0  0  0  0  0  0  0  0  0  0  0
   -1.5075   30.5896    8.0976 C   0  0  0  0  0  0  0  0  0  0  0  0
   -0.5887   30.2017    9.0784 C   0  0  0  0  0  0  0  0  0  0  0  0
    0.5805   29.5382    8.7141 C   0  0  0  0  0  0  0  0  0  0  0  0
    0.7974   29.2772    7.3719 C   0  0  0  0  0  0  0  0  0  0  0  0
   -0.0641   29.6239    6.3937 N   0  0  0  0  0  0  0  0  0  0  0  0
   -1.1922   30.2671    6.7784 C   0  0  0  0  0  0  0  0  0  0  0  0
  1  2  2  0  0  0
  2  5  1  0  0  0
  5  6  1  0  0  0
  6  7  1  0  0  0
  7  8  2  0  0  0
  8  9  1  0  0  0
  9 10  1  0  0  0
  9 11  2  0  0  0
 11 12  1  0  0  0
 12 13  1  0  0  0
  2  3  1  0  0  0
  3 14  1  0  0  0
 14 15  1  0  0  0
 15 16  2  0  0  0
 16 17  1  0  0  0
 17 18  2  0  0  0
 18 19  1  0  0  0
 19 20  2  0  0  0
 20 21  1  0  0  0
 21 22  1  0  0  0
 22 23  2  0  0  0
 23 24  1  0  0  0
 24 25  2  0  0  0
 25 26  1  0  0  0
 12  6  2  0  0  0
 20 15  1  0  0  0
 26 21  2  0  0  0
  3  4  1  0  0  0
M  END
> <minimizedAffinity>
-10.03314

$$$$
OCNT-2311655


 27 30  0  0  0  0  0  0  0  0999 V2000
   -2.4495   25.9756    6.2435 O   0  0  0  0  0  0  0  0  0  0  0  0
   -2.9975   26.9044    5.6573 C   0  0  0  0  0  0  0  0  0  0  0  0
   -2.7544   28.2455    5.9277 N   0  0  0  0  0  0  0  0  0  0  0  0
   -3.3497   28.9125    5.4600 H   0  0  0  0  0  0  0  0  0  0  0  0
   -1.8259   28.7931    6.8392 C   0  0  0  0  0  0  0  0  0  0  0  0
   -0.4611   28.5057    6.8370 C   0  0  0  0  0  0  0  0  0  0  0  0
    0.3900   29.0982    7.7740 C   0  0  0  0  0  0  0  0  0  0  0  0
   -0.1145   29.9852    8.7219 C   0  0  0  0  0  0  0  0  0  0  0  0
   -1.4799   30.2940    8.7425 C   0  0  0  0  0  0  0  0  0  0  0  0
   -2.3258   29.6916    7.7950 C   0  0  0  0  0  0  0  0  0  0  0  0
   -2.0293   31.2530    9.7702 C   0  0  0  0  0  0  0  0  0  0  0  0
   -3.2943   31.8382    9.3459 N   0  0  0  0  0  0  0  0  0  0  0  0
   -3.4706   33.0338    8.7041 C   0  0  0  0  0  0  0  0  0  0  0  0
   -4.8219   33.1508    8.4803 C   0  0  0  0  0  0  0  0  0  0  0  0
   -5.3747   31.9701    9.0081 C   0  0  0  0  0  0  0  0  0  0  0  0
   -4.4480   31.1601    9.5258 N   0  0  0  0  0  0  0  0  0  0  0  0
   -3.9990   26.6899    4.6100 C   0  0  0  0  0  0  0  0  0  0  0  0
   -5.0864   27.4612    4.2326 C   0  0  0  0  0  0  0  0  0  0  0  0
   -5.8211   26.8810    3.1552 C   0  0  0  0  0  0  0  0  0  0  0  0
   -5.2690   25.6930    2.7327 C   0  0  0  0  0  0  0  0  0  0  0  0
   -3.8773   25.2863    3.6232 S   0  0  0  0  0  0  0  0  0  0  0  0
   -5.8598   24.8294    1.5627 C   0  0  0  0  0  0  0  0  0  0  0  0
   -6.1820   25.3674    0.3781 N   0  0  0  0  0  0  0  0  0  0  0  0
   -6.6405   24.3268   -0.3359 N   0  0  0  0  0  0  0  0  0  0  0  0
   -6.6264   23.1479    0.3480 C   0  0  0  0  0  0  0  0  0  0  0  0
   -6.1217   23.4409    1.5922 C   0  0  0  0  0  0  0  0  0  0  0  0
   -6.9484   24.4954   -1.2881 H   0  0  0  0  0  0  0  0  0  0  0  0
  1  2  2  0  0  0
  2  3  1  0  0  0
  3  5  1  0  0  0
  5  6  1  0  0  0
  6  7  2  0  0  0
  7  8  1  0  0  0
  8  9  2  0  0  0
  9 11  1  0  0  0
 11 12  1  0  0  0
 12 13  1  0  0  0
 13 14  2  0  0  0
 14 15  1  0  0  0
 15 16  2  0  0  0
  9 10  1  0  0  0
  2 17  1  0  0  0
 17 18  2  0  0  0
 18 19  1  0  0  0
 19 20  2  0  0  0
 20 22  1  0  0  0
 22 23  2  0  0  0
 23 24  1  0  0  0
 24 25  1  0  0  0
 25 26  2  0  0  0
 20 21  1  0  0  0
 10  5  2  0  0  0
 21 17  1  0  0  0
 16 12  1  0  0  0
 26 22  1  0  0  0
  3  4  1  0  0  0
 24 27  1  0  0  0
M  END
> <minimizedAffinity>
-9.25963

$$$$
OCNT-2311661


 25 27  0  0  0  0  0  0  0  0999 V2000
   -6.3191   22.3424    3.4683 C   0  0  0  0  0  0  0  0  0  0  0  0
   -6.1986   23.3555    2.3089 C   0  0  0  0  0  0  0  0  0  0  0  0
   -7.2034   22.9352    1.2162 C   0  0  0  0  0  0  0  0  0  0  0  0
   -4.7775   23.3204    1.7144 C   0  0  0  0  0  0  0  0  0  0  0  0
   -3.6929   23.7886    2.6860 C   0  0  0  0  0  0  0  0  0  0  0  0
   -4.1244   24.9548    3.5970 C   0  0  0  0  0  0  0  0  0  0  0  0
   -5.3364   25.7155    3.0064 C   0  0  0  0  0  0  0  0  0  0  0  0
   -6.5536   24.7834    2.8101 C   0  0  0  0  0  0  0  0  0  0  0  0
   -5.7562   26.9480    3.8005 C   0  0  0  0  0  0  0  0  0  0  0  0
   -6.1477   26.8660    5.1456 C   0  0  0  0  0  0  0  0  0  0  0  0
   -6.5370   28.0102    5.8453 C   0  0  0  0  0  0  0  0  0  0  0  0
   -6.5496   29.2492    5.2091 C   0  0  0  0  0  0  0  0  0  0  0  0
   -6.1750   29.3452    3.8715 C   0  0  0  0  0  0  0  0  0  0  0  0
   -5.7835   28.2024    3.1705 C   0  0  0  0  0  0  0  0  0  0  0  0
   -2.9896   25.8451    3.8396 N   0  0  0  0  0  0  0  0  0  0  0  0
   -2.5263   26.1160    5.1096 C   0  0  0  0  0  0  0  0  0  0  0  0
   -3.0004   25.6174    6.1228 O   0  0  0  0  0  0  0  0  0  0  0  0
   -2.5886   26.3403    3.0508 H   0  0  0  0  0  0  0  0  0  0  0  0
   -1.3598   27.0807    5.1151 C   0  0  0  0  0  0  0  0  0  0  0  0
   -0.5456   26.9741    6.4030 C   0  0  0  0  0  0  0  0  0  0  0  0
   -0.7543   28.1484    7.3118 C   0  0  0  0  0  0  0  0  0  0  0  0
   -1.9058   28.6230    7.9144 C   0  0  0  0  0  0  0  0  0  0  0  0
   -1.7611   29.7552    8.6921 N   0  0  0  0  0  0  0  0  0  0  0  0
   -0.4964   30.1160    8.6941 C   0  0  0  0  0  0  0  0  0  0  0  0
    0.5739   29.1379    7.7788 S   0  0  0  0  0  0  0  0  0  0  0  0
  1  2  1  0  0  0
  2  3  1  0  0  0
  2  4  1  0  0  0
  4  5  1  0  0  0
  5  6  1  0  0  0
  6 15  1  0  0  0
 15 16  1  0  0  0
 16 17  2  0  0  0
 16 19  1  0  0  0
 19 20  1  0  0  0
 20 21  1  0  0  0
 21 22  2  0  0  0
 22 23  1  0  0  0
 23 24  2  0  0  0
 24 25  1  0  0  0
  6  7  1  0  0  0
  7  9  1  0  0  0
  9 10  2  0  0  0
 10 11  1  0  0  0
 11 12  2  0  0  0
 12 13  1  0  0  0
 13 14  2  0  0  0
  7  8  1  0  0  0
  8  2  1  0  0  0
 25 21  1  0  0  0
 14  9  1  0  0  0
 15 18  1  0  0  0
M  END
> <minimizedAffinity>
-8.63295

$$$$
OCNT-2311662


 34 38  0  0  0  0  0  0  0  0999 V2000
   -2.1512   31.1274    7.5184 C   0  0  0  0  0  0  0  0  0  0  0  0
   -1.7284   31.9805    6.7282 O   0  0  0  0  0  0  0  0  0  0  0  0
   -1.7611   29.7946    7.3698 N   0  0  0  0  0  0  0  0  0  0  0  0
   -2.0698   28.6894    8.2776 C   0  0  0  0  0  0  0  0  0  0  0  0
   -2.3341   27.4028    7.5037 C   0  0  0  0  0  0  0  0  0  0  0  0
   -1.1349   26.9880    6.6334 C   0  0  0  0  0  0  0  0  0  0  0  0
   -0.1493   28.1462    6.4147 C   0  0  0  0  0  0  0  0  0  0  0  0
   -0.8671   29.4826    6.2494 C   0  0  0  0  0  0  0  0  0  0  0  0
   -1.6237   26.4027    5.3032 C   0  0  0  0  0  0  0  0  0  0  0  0
   -0.8430   25.9913    4.4535 O   0  0  0  0  0  0  0  0  0  0  0  0
   -3.0077   26.4038    5.2102 N   0  0  0  0  0  0  0  0  0  0  0  0
   -3.5175   26.7620    6.0068 H   0  0  0  0  0  0  0  0  0  0  0  0
   -3.7978   25.9312    4.1402 C   0  0  0  0  0  0  0  0  0  0  0  0
   -4.6735   26.8634    3.5371 C   0  0  0  0  0  0  0  0  0  0  0  0
   -5.5064   26.4950    2.4749 C   0  0  0  0  0  0  0  0  0  0  0  0
   -5.4440   25.1926    2.0382 C   0  0  0  0  0  0  0  0  0  0  0  0
   -6.1767   24.6559    1.0275 O   0  0  0  0  0  0  0  0  0  0  0  0
   -5.7062   23.2925    1.0461 C   0  0  0  0  0  0  0  0  0  0  0  0
   -4.6917   23.0528    2.0396 O   0  0  0  0  0  0  0  0  0  0  0  0
   -4.5950   24.2819    2.6152 C   0  0  0  0  0  0  0  0  0  0  0  0
   -3.7585   24.6190    3.6618 C   0  0  0  0  0  0  0  0  0  0  0  0
   -3.3620   33.0649    8.4399 C   0  0  0  0  0  0  0  0  0  0  0  0
   -3.1600   31.5438    8.6470 C   0  0  0  0  0  0  0  0  0  0  0  0
   -2.4507   31.3731   10.0165 C   0  0  0  0  0  0  0  0  0  0  0  0
   -4.4014   30.6078    8.7059 C   0  0  0  0  0  0  0  0  0  0  0  0
   -4.8419   30.2382   10.0026 C   0  0  0  0  0  0  0  0  0  0  0  0
   -5.8859   29.3456   10.2046 C   0  0  0  0  0  0  0  0  0  0  0  0
   -6.5425   28.8061    9.1124 C   0  0  0  0  0  0  0  0  0  0  0  0
   -6.2003   29.1885    7.8122 C   0  0  0  0  0  0  0  0  0  0  0  0
   -6.9349   28.6425    6.7468 C   0  0  0  0  0  0  0  0  0  0  0  0
   -6.6843   29.0156    5.4326 C   0  0  0  0  0  0  0  0  0  0  0  0
   -5.7048   29.9576    5.1730 C   0  0  0  0  0  0  0  0  0  0  0  0
   -4.9629   30.5034    6.2263 C   0  0  0  0  0  0  0  0  0  0  0  0
   -5.1485   30.1220    7.5788 C   0  0  0  0  0  0  0  0  0  0  0  0
 22 23  1  0  0  0
 23 24  1  0  0  0
 23  1  1  0  0  0
  1  2  2  0  0  0
  1  3  1  0  0  0
  3  4  1  0  0  0
  4  5  1  0  0  0
  5  6  1  0  0  0
  6  9  1  0  0  0
  9 10  2  0  0  0
  9 11  1  0  0  0
 11 13  1  0  0  0
 13 14  1  0  0  0
 14 15  2  0  0  0
 15 16  1  0  0  0
 16 17  1  0  0  0
 17 18  1  0  0  0
 18 19  1  0  0  0
 19 20  1  0  0  0
 20 21  1  0  0  0
  6  7  1  0  0  0
  7  8  1  0  0  0
 23 25  1  0  0  0
 25 26  2  0  0  0
 26 27  1  0  0  0
 27 28  2  0  0  0
 28 29  1  0  0  0
 29 30  2  0  0  0
 30 31  1  0  0  0
 31 32  2  0  0  0
 32 33  1  0  0  0
 33 34  2  0  0  0
  8  3  1  0  0  0
 34 25  1  0  0  0
 21 13  2  0  0  0
 34 29  1  0  0  0
 20 16  2  0  0  0
 11 12  1  0  0  0
M  END
> <minimizedAffinity>
-11.05837

$$$$
OCNT-2311676


 26 29  0  0  0  0  0  0  0  0999 V2000
   -3.8312   25.7955    2.2176 O   0  0  0  0  0  0  0  0  0  0  0  0
   -5.0500   25.6861    2.2309 C   0  0  0  0  0  0  0  0  0  0  0  0
   -5.9455   26.4264    2.9829 N   0  0  0  0  0  0  0  0  0  0  0  0
   -6.9286   26.3033    2.7773 H   0  0  0  0  0  0  0  0  0  0  0  0
   -5.6858   24.6843    1.3440 C   0  0  0  0  0  0  0  0  0  0  0  0
   -6.3485   25.0686    0.1714 C   0  0  0  0  0  0  0  0  0  0  0  0
   -6.9240   24.0840   -0.6174 C   0  0  0  0  0  0  0  0  0  0  0  0
   -6.9036   22.7579   -0.3615 N   0  0  0  0  0  0  0  0  0  0  0  0
   -6.2736   22.4470    0.7857 C   0  0  0  0  0  0  0  0  0  0  0  0
   -5.6584   23.3180    1.6784 C   0  0  0  0  0  0  0  0  0  0  0  0
   -5.1360   22.5142    2.7318 C   0  0  0  0  0  0  0  0  0  0  0  0
   -5.4456   21.1993    2.4534 C   0  0  0  0  0  0  0  0  0  0  0  0
   -6.1376   21.1746    1.2699 N   0  0  0  0  0  0  0  0  0  0  0  0
   -6.5060   20.3572    0.8060 H   0  0  0  0  0  0  0  0  0  0  0  0
   -5.6425   27.4080    3.9493 C   0  0  0  0  0  0  0  0  0  0  0  0
   -6.0986   28.7086    3.7066 C   0  0  0  0  0  0  0  0  0  0  0  0
   -5.8471   29.7377    4.6199 C   0  0  0  0  0  0  0  0  0  0  0  0
   -5.1416   29.4832    5.8030 C   0  0  0  0  0  0  0  0  0  0  0  0
   -4.6854   28.1809    6.0419 C   0  0  0  0  0  0  0  0  0  0  0  0
   -4.9355   27.1537    5.1240 C   0  0  0  0  0  0  0  0  0  0  0  0
   -4.8591   30.5845    6.7941 C   0  0  0  0  0  0  0  0  0  0  0  0
   -3.5161   30.4971    7.3418 N   0  0  0  0  0  0  0  0  0  0  0  0
   -3.1779   30.0804    8.6003 C   0  0  0  0  0  0  0  0  0  0  0  0
   -1.8105   30.2162    8.6620 C   0  0  0  0  0  0  0  0  0  0  0  0
   -1.3165   30.7097    7.4825 N   0  0  0  0  0  0  0  0  0  0  0  0
   -2.3653   30.8713    6.7071 C   0  0  0  0  0  0  0  0  0  0  0  0
  1  2  2  0  0  0
  2  3  1  0  0  0
  3 15  1  0  0  0
 15 16  1  0  0  0
 16 17  2  0  0  0
 17 18  1  0  0  0
 18 21  1  0  0  0
 21 22  1  0  0  0
 22 23  1  0  0  0
 23 24  2  0  0  0
 24 25  1  0  0  0
 25 26  2  0  0  0
 18 19  2  0  0  0
 19 20  1  0  0  0
  2  5  1  0  0  0
  5  6  2  0  0  0
  6  7  1  0  0  0
  7  8  2  0  0  0
  8  9  1  0  0  0
  9 10  2  0  0  0
 10 11  1  0  0  0
 11 12  2  0  0  0
 12 13  1  0  0  0
 20 15  2  0  0  0
 10  5  1  0  0  0
 26 22  1  0  0  0
 13  9  1  0  0  0
  3  4  1  0  0  0
 13 14  1  0  0  0
M  END
> <minimizedAffinity>
-9.03920

$$$$
OCNT-2311683


 26 28  0  0  0  0  0  0  0  0999 V2000
   -6.6165   28.7752    6.4101 C   0  0  0  0  0  0  0  0  0  0  0  0
   -7.5366   29.9201    5.9651 C   0  0  0  0  0  0  0  0  0  0  0  0
   -7.3475   28.0401    7.4100 O   0  0  0  0  0  0  0  0  0  0  0  0
   -6.6475   27.5321    7.8709 H   0  0  0  0  0  0  0  0  0  0  0  0
   -6.2960   27.8696    5.2113 C   0  0  0  0  0  0  0  0  0  0  0  0
   -6.0344   28.4232    3.9420 C   0  0  0  0  0  0  0  0  0  0  0  0
   -5.7478   27.6075    2.8422 C   0  0  0  0  0  0  0  0  0  0  0  0
   -5.7335   26.2233    2.9995 C   0  0  0  0  0  0  0  0  0  0  0  0
   -5.9804   25.6466    4.2453 C   0  0  0  0  0  0  0  0  0  0  0  0
   -6.2665   26.4686    5.3393 C   0  0  0  0  0  0  0  0  0  0  0  0
   -5.3538   25.1826    1.6123 S   0  0  0  0  0  0  0  0  0  0  0  0
   -5.9404   23.5891    2.1280 C   0  0  0  0  0  0  0  0  0  0  0  0
   -3.9065   25.1127    1.4931 O   0  0  0  0  0  0  0  0  0  0  0  0
   -6.1696   25.6268    0.4964 O   0  0  0  0  0  0  0  0  0  0  0  0
   -5.3392   29.3464    7.1108 C   0  0  0  0  0  0  0  0  0  0  0  0
   -2.1189   31.9228   10.7844 C   0  0  0  0  0  0  0  0  0  0  0  0
   -1.8376   31.3159    9.4327 C   0  0  0  0  0  0  0  0  0  0  0  0
   -0.5569   30.8006    9.1676 C   0  0  0  0  0  0  0  0  0  0  0  0
   -0.2545   30.2464    7.9257 C   0  0  0  0  0  0  0  0  0  0  0  0
   -1.2290   30.1965    6.9328 C   0  0  0  0  0  0  0  0  0  0  0  0
   -2.5214   30.6886    7.1750 C   0  0  0  0  0  0  0  0  0  0  0  0
   -2.8280   31.2666    8.4247 C   0  0  0  0  0  0  0  0  0  0  0  0
   -4.2334   31.7737    8.6812 C   0  0  0  0  0  0  0  0  0  0  0  0
   -5.1413   31.7845    7.4339 C   0  0  0  0  0  0  0  0  0  0  0  0
   -4.9470   30.6477    6.5114 N   0  0  0  0  0  0  0  0  0  0  0  0
   -3.5456   30.6514    6.0589 C   0  0  0  0  0  0  0  0  0  0  0  0
 16 17  1  0  0  0
 17 18  1  0  0  0
 18 19  2  0  0  0
 19 20  1  0  0  0
 20 21  2  0  0  0
 21 22  1  0  0  0
 22 23  1  0  0  0
 23 24  1  0  0  0
 24 25  1  0  0  0
 25 15  1  0  0  0
 15  1  1  0  0  0
  1  2  1  0  0  0
  1  3  1  0  0  0
  1  5  1  0  0  0
  5  6  1  0  0  0
  6  7  2  0  0  0
  7  8  1  0  0  0
  8 11  1  0  0  0
 11 12  1  0  0  0
 11 13  2  0  0  0
 11 14  2  0  0  0
  8  9  2  0  0  0
  9 10  1  0  0  0
 25 26  1  0  0  0
 22 17  2  0  0  0
 10  5  2  0  0  0
 26 21  1  0  0  0
  3  4  1  0  0  0
M  END
> <minimizedAffinity>
-9.40989

$$$$
OCNT-2311687


 25 28  0  0  0  0  0  0  0  0999 V2000
    1.6624   29.3732    8.4250 O   0  0  0  0  0  0  0  0  0  0  0  0
    0.5296   29.0450    8.0889 C   0  0  0  0  0  0  0  0  0  0  0  0
   -0.5935   29.6589    8.5934 N   0  0  0  0  0  0  0  0  0  0  0  0
   -1.8956   29.3450    8.2805 C   0  0  0  0  0  0  0  0  0  0  0  0
   -2.8636   29.9072    8.7757 O   0  0  0  0  0  0  0  0  0  0  0  0
   -2.0356   28.2699    7.3067 C   0  0  0  0  0  0  0  0  0  0  0  0
   -0.9563   27.6751    6.8141 C   0  0  0  0  0  0  0  0  0  0  0  0
   -1.3374   26.6088    5.8500 C   0  0  0  0  0  0  0  0  0  0  0  0
   -2.7849   26.8592    5.6133 N   0  0  0  0  0  0  0  0  0  0  0  0
   -3.2719   27.6953    6.7456 C   0  0  0  0  0  0  0  0  0  0  0  0
    0.3009   28.0359    7.1846 N   0  0  0  0  0  0  0  0  0  0  0  0
   -0.4451   30.3966    9.2633 H   0  0  0  0  0  0  0  0  0  0  0  0
    1.1168   27.5744    6.8005 H   0  0  0  0  0  0  0  0  0  0  0  0
   -3.5721   25.6305    5.4455 C   0  0  0  0  0  0  0  0  0  0  0  0
   -4.7117   25.7158    4.4113 C   0  0  0  0  0  0  0  0  0  0  0  0
   -5.0123   27.1104    3.8884 C   0  0  0  0  0  0  0  0  0  0  0  0
   -5.7470   26.7901    2.6101 C   0  0  0  0  0  0  0  0  0  0  0  0
   -4.9780   25.5781    2.0937 C   0  0  0  0  0  0  0  0  0  0  0  0
   -4.4538   24.8974    3.2544 O   0  0  0  0  0  0  0  0  0  0  0  0
   -5.8212   24.6735    1.2249 C   0  0  0  0  0  0  0  0  0  0  0  0
   -6.4971   25.2115    0.1173 C   0  0  0  0  0  0  0  0  0  0  0  0
   -7.2920   24.4020   -0.6967 C   0  0  0  0  0  0  0  0  0  0  0  0
   -7.4227   23.0444   -0.4147 C   0  0  0  0  0  0  0  0  0  0  0  0
   -6.7591   22.4959    0.6803 C   0  0  0  0  0  0  0  0  0  0  0  0
   -5.9642   23.3049    1.4952 C   0  0  0  0  0  0  0  0  0  0  0  0
  1  2  2  0  0  0
  2  3  1  0  0  0
  3  4  1  0  0  0
  4  5  2  0  0  0
  4  6  1  0  0  0
  6  7  2  0  0  0
  7  8  1  0  0  0
  8  9  1  0  0  0
  9 14  1  0  0  0
 14 15  1  0  0  0
 15 16  1  0  0  0
 16 17  1  0  0  0
 17 18  1  0  0  0
 18 20  1  0  0  0
 20 21  2  0  0  0
 21 22  1  0  0  0
 22 23  2  0  0  0
 23 24  1  0  0  0
 24 25  2  0  0  0
 18 19  1  0  0  0
  9 10  1  0  0  0
  7 11  1  0  0  0
 11  2  1  0  0  0
 10  6  1  0  0  0
 19 15  1  0  0  0
 25 20  1  0  0  0
  3 12  1  0  0  0
 11 13  1  0  0  0
M  END
> <minimizedAffinity>
-9.69936

$$$$
OCNT-2311711


 29 33  0  0  0  0  0  0  0  0999 V2000
   -1.4622   25.9306    4.1805 C   0  0  0  0  0  0  0  0  0  0  0  0
   -0.6890   24.9929    3.9928 O   0  0  0  0  0  0  0  0  0  0  0  0
   -2.7817   25.8685    3.7798 N   0  0  0  0  0  0  0  0  0  0  0  0
   -3.2317   24.7423    2.9722 C   0  0  0  0  0  0  0  0  0  0  0  0
   -4.3670   25.3183    2.1208 C   0  0  0  0  0  0  0  0  0  0  0  0
   -5.0416   26.3005    3.1075 C   0  0  0  0  0  0  0  0  0  0  0  0
   -6.0650   25.6561    4.0558 C   0  0  0  0  0  0  0  0  0  0  0  0
   -6.6320   26.6742    5.0457 C   0  0  0  0  0  0  0  0  0  0  0  0
   -5.6210   27.7381    5.4673 C   0  0  0  0  0  0  0  0  0  0  0  0
   -4.1855   27.2450    5.3431 C   0  0  0  0  0  0  0  0  0  0  0  0
   -3.8348   26.8878    3.8910 C   0  0  0  0  0  0  0  0  0  0  0  0
   -5.2863   24.3566    1.4032 C   0  0  0  0  0  0  0  0  0  0  0  0
   -6.2160   24.8653    0.4792 C   0  0  0  0  0  0  0  0  0  0  0  0
   -7.0794   24.0168   -0.2165 C   0  0  0  0  0  0  0  0  0  0  0  0
   -7.0228   22.6425   -0.0059 C   0  0  0  0  0  0  0  0  0  0  0  0
   -6.0993   22.1192    0.8944 C   0  0  0  0  0  0  0  0  0  0  0  0
   -5.2342   22.9684    1.5904 C   0  0  0  0  0  0  0  0  0  0  0  0
   -1.0071   27.1918    4.8856 C   0  0  0  0  0  0  0  0  0  0  0  0
   -0.7454   26.9740    6.3803 C   0  0  0  0  0  0  0  0  0  0  0  0
    0.8013   29.0227    7.5523 O   0  0  0  0  0  0  0  0  0  0  0  0
   -0.4149   29.0223    7.7121 C   0  0  0  0  0  0  0  0  0  0  0  0
   -1.0806   30.0494    8.4909 C   0  0  0  0  0  0  0  0  0  0  0  0
   -2.4226   29.9000    8.7595 C   0  0  0  0  0  0  0  0  0  0  0  0
   -3.2114   28.8672    8.3721 N   0  0  0  0  0  0  0  0  0  0  0  0
   -2.6052   27.9921    7.6353 C   0  0  0  0  0  0  0  0  0  0  0  0
   -1.2808   28.0360    7.2303 N   0  0  0  0  0  0  0  0  0  0  0  0
   -3.0302   31.1993    9.6852 S   0  0  0  0  0  0  0  0  0  0  0  0
   -1.4976   31.9643    9.7330 C   0  0  0  0  0  0  0  0  0  0  0  0
   -0.5387   31.2405    9.0583 C   0  0  0  0  0  0  0  0  0  0  0  0
 20 21  2  0  0  0
 21 22  1  0  0  0
 22 23  2  0  0  0
 23 24  1  0  0  0
 24 25  2  0  0  0
 25 26  1  0  0  0
 26 19  1  0  0  0
 19 18  1  0  0  0
 18  1  1  0  0  0
  1  2  2  0  0  0
  1  3  1  0  0  0
  3  4  1  0  0  0
  4  5  1  0  0  0
  5 12  1  0  0  0
 12 13  2  0  0  0
 13 14  1  0  0  0
 14 15  2  0  0  0
 15 16  1  0  0  0
 16 17  2  0  0  0
  5  6  1  0  0  0
  6  7  1  0  0  0
  7  8  1  0  0  0
  8  9  1  0  0  0
  9 10  1  0  0  0
 10 11  1  0  0  0
 23 27  1  0  0  0
 27 28  1  0  0  0
 28 29  2  0  0  0
 26 21  1  0  0  0
 11  3  1  0  0  0
 29 22  1  0  0  0
 17 12  1  0  0  0
 11  6  1  0  0  0
M  END
> <minimizedAffinity>
-10.44710

$$$$
OCNT-2311723


 28 31  0  0  0  0  0  0  0  0999 V2000
   -6.0011   24.9164    1.1425 C   0  0  0  0  0  0  0  0  0  0  0  0
   -5.3908   25.6313    2.3028 C   0  0  0  0  0  0  0  0  0  0  0  0
   -5.8678   26.7580    2.9444 C   0  0  0  0  0  0  0  0  0  0  0  0
   -4.9977   27.1253    4.0089 C   0  0  0  0  0  0  0  0  0  0  0  0
   -3.9295   26.2972    4.1446 C   0  0  0  0  0  0  0  0  0  0  0  0
   -3.1495   26.7521    5.2404 C   0  0  0  0  0  0  0  0  0  0  0  0
   -3.7817   27.8840    5.7474 C   0  0  0  0  0  0  0  0  0  0  0  0
   -4.9164   28.1023    4.9800 N   0  0  0  0  0  0  0  0  0  0  0  0
   -3.9223   25.0295    2.9688 S   0  0  0  0  0  0  0  0  0  0  0  0
   -3.3835   28.7083    6.8832 C   0  0  0  0  0  0  0  0  0  0  0  0
   -3.1744   28.2586    8.0068 O   0  0  0  0  0  0  0  0  0  0  0  0
   -3.2916   30.0588    6.6261 N   0  0  0  0  0  0  0  0  0  0  0  0
   -3.8635   30.3955    5.8557 H   0  0  0  0  0  0  0  0  0  0  0  0
   -3.1522   31.0028    7.7209 C   0  0  0  0  0  0  0  0  0  0  0  0
   -3.5827   30.4631    9.0782 C   0  0  0  0  0  0  0  0  0  0  0  0
   -2.9243   31.2645   10.0713 O   0  0  0  0  0  0  0  0  0  0  0  0
   -1.8388   31.9665    9.4394 C   0  0  0  0  0  0  0  0  0  0  0  0
   -1.7319   31.4944    7.9954 C   0  0  0  0  0  0  0  0  0  0  0  0
   -0.6726   30.5054    7.8424 N   0  0  0  0  0  0  0  0  0  0  0  0
    0.0799   29.9801    8.8594 C   0  0  0  0  0  0  0  0  0  0  0  0
    0.9679   29.1104    8.2731 C   0  0  0  0  0  0  0  0  0  0  0  0
    0.6856   29.1849    6.8988 C   0  0  0  0  0  0  0  0  0  0  0  0
   -0.3031   30.0404    6.6276 N   0  0  0  0  0  0  0  0  0  0  0  0
   -5.8917   29.1694    5.0973 C   0  0  0  0  0  0  0  0  0  0  0  0
   -6.9054   28.9435    6.1984 C   0  0  0  0  0  0  0  0  0  0  0  0
   -7.9636   29.7759    6.0345 F   0  0  0  0  0  0  0  0  0  0  0  0
   -6.4100   29.1585    7.4333 F   0  0  0  0  0  0  0  0  0  0  0  0
   -7.3962   27.6819    6.1644 F   0  0  0  0  0  0  0  0  0  0  0  0
  1  2  1  0  0  0
  2  3  2  0  0  0
  3  4  1  0  0  0
  4  5  2  0  0  0
  5  6  1  0  0  0
  6  7  2  0  0  0
  7 10  1  0  0  0
 10 11  2  0  0  0
 10 12  1  0  0  0
 12 14  1  0  0  0
 14 15  1  0  0  0
 15 16  1  0  0  0
 16 17  1  0  0  0
 17 18  1  0  0  0
 18 19  1  0  0  0
 19 20  1  0  0  0
 20 21  2  0  0  0
 21 22  1  0  0  0
 22 23  2  0  0  0
  7  8  1  0  0  0
  8 24  1  0  0  0
 24 25  1  0  0  0
 25 26  1  0  0  0
 25 27  1  0  0  0
 25 28  1  0  0  0
  5  9  1  0  0  0
  9  2  1  0  0  0
  8  4  1  0  0  0
 18 14  1  0  0  0
 23 19  1  0  0  0
 12 13  1  0  0  0
M  END
> <minimizedAffinity>
-9.31553

$$$$
OCNT-2311727


 25 26  0  0  0  0  0  0  0  0999 V2000
   -5.5507   27.9440    3.7859 C   0  0  0  0  0  0  0  0  0  0  0  0
   -5.2046   26.7655    4.7154 C   0  0  0  0  0  0  0  0  0  0  0  0
   -5.6311   27.1348    6.0568 O   0  0  0  0  0  0  0  0  0  0  0  0
   -5.2648   26.4552    6.6574 H   0  0  0  0  0  0  0  0  0  0  0  0
   -3.7135   26.5737    4.7769 C   0  0  0  0  0  0  0  0  0  0  0  0
   -2.9070   26.5512    5.8214 N   0  0  0  0  0  0  0  0  0  0  0  0
   -1.6681   26.3193    5.2823 C   0  0  0  0  0  0  0  0  0  0  0  0
   -1.7675   26.2018    3.9202 C   0  0  0  0  0  0  0  0  0  0  0  0
   -3.0768   26.3499    3.5783 O   0  0  0  0  0  0  0  0  0  0  0  0
   -5.8449   25.4397    4.2607 C   0  0  0  0  0  0  0  0  0  0  0  0
   -6.9934   25.1915    4.9417 F   0  0  0  0  0  0  0  0  0  0  0  0
   -5.0334   24.3765    4.4362 F   0  0  0  0  0  0  0  0  0  0  0  0
   -6.1885   25.4743    2.9504 F   0  0  0  0  0  0  0  0  0  0  0  0
   -6.1923   29.1349    4.4965 C   0  0  0  0  0  0  0  0  0  0  0  0
   -4.9813   30.3669    6.2667 C   0  0  0  0  0  0  0  0  0  0  0  0
   -5.6249   29.8413    7.1680 O   0  0  0  0  0  0  0  0  0  0  0  0
   -5.1880   30.0876    4.9313 N   0  0  0  0  0  0  0  0  0  0  0  0
   -4.6638   30.5938    4.2310 H   0  0  0  0  0  0  0  0  0  0  0  0
   -3.9089   31.4185    6.4930 C   0  0  0  0  0  0  0  0  0  0  0  0
   -4.1064   33.3683    8.7936 C   0  0  0  0  0  0  0  0  0  0  0  0
   -3.6878   31.9155    9.0257 C   0  0  0  0  0  0  0  0  0  0  0  0
   -2.5150   31.8218   10.0049 C   0  0  0  0  0  0  0  0  0  0  0  0
   -1.2576   31.9809    9.1512 C   0  0  0  0  0  0  0  0  0  0  0  0
   -1.6739   31.6964    7.7083 C   0  0  0  0  0  0  0  0  0  0  0  0
   -3.1230   31.1967    7.7866 C   0  0  0  0  0  0  0  0  0  0  0  0
 20 21  1  0  0  0
 21 22  1  0  0  0
 22 23  1  0  0  0
 23 24  1  0  0  0
 24 25  1  0  0  0
 25 19  1  0  0  0
 19 15  1  0  0  0
 15 16  2  0  0  0
 15 17  1  0  0  0
 17 14  1  0  0  0
 14  1  1  0  0  0
  1  2  1  0  0  0
  2  3  1  0  0  0
  2  5  1  0  0  0
  5  6  2  0  0  0
  6  7  1  0  0  0
  7  8  2  0  0  0
  8  9  1  0  0  0
  2 10  1  0  0  0
 10 11  1  0  0  0
 10 12  1  0  0  0
 10 13  1  0  0  0
 25 21  1  0  0  0
  9  5  1  0  0  0
 17 18  1  0  0  0
  3  4  1  0  0  0
M  END
> <minimizedAffinity>
-8.02107

$$$$
OCNT-2311745


 24 26  0  0  0  0  0  0  0  0999 V2000
   -5.5467   28.6928    5.4655 C   0  0  0  0  0  0  0  0  0  0  0  0
   -5.9131   29.5488    4.4430 C   0  0  0  0  0  0  0  0  0  0  0  0
   -6.1027   29.0017    3.1949 C   0  0  0  0  0  0  0  0  0  0  0  0
   -5.9583   27.6963    2.9281 N   0  0  0  0  0  0  0  0  0  0  0  0
   -5.6354   26.9179    3.9769 C   0  0  0  0  0  0  0  0  0  0  0  0
   -5.4170   27.3746    5.2278 N   0  0  0  0  0  0  0  0  0  0  0  0
   -5.0758   31.0156    9.0700 C   0  0  0  0  0  0  0  0  0  0  0  0
   -6.3240   30.9531    8.1642 C   0  0  0  0  0  0  0  0  0  0  0  0
   -6.5256   29.5704    7.5487 C   0  0  0  0  0  0  0  0  0  0  0  0
   -5.3566   29.1654    6.7636 N   0  0  0  0  0  0  0  0  0  0  0  0
   -4.1034   29.8897    7.0024 C   0  0  0  0  0  0  0  0  0  0  0  0
   -3.9465   30.1287    8.4997 C   0  0  0  0  0  0  0  0  0  0  0  0
   -4.6446   32.4255    9.2667 N   0  0  0  0  0  0  0  0  0  0  0  0
   -3.1850   32.5539    9.3355 C   0  0  0  0  0  0  0  0  0  0  0  0
   -4.8882   34.5325    8.2629 C   0  0  0  0  0  0  0  0  0  0  0  0
   -4.9966   33.1280    8.0309 O   0  0  0  0  0  0  0  0  0  0  0  0
   -5.5033   25.4340    3.7331 C   0  0  0  0  0  0  0  0  0  0  0  0
   -4.3794   25.0004    2.3554 S   0  0  0  0  0  0  0  0  0  0  0  0
   -5.5679   24.3572    1.1934 C   0  0  0  0  0  0  0  0  0  0  0  0
   -6.1852   25.1983    0.2634 C   0  0  0  0  0  0  0  0  0  0  0  0
   -7.1110   24.6807   -0.6452 C   0  0  0  0  0  0  0  0  0  0  0  0
   -7.4187   23.3208   -0.6302 C   0  0  0  0  0  0  0  0  0  0  0  0
   -6.7995   22.4766    0.2903 C   0  0  0  0  0  0  0  0  0  0  0  0
   -5.8730   22.9929    1.1981 C   0  0  0  0  0  0  0  0  0  0  0  0
 15 16  1  0  0  0
 16 13  1  0  0  0
 13 14  1  0  0  0
 13  7  1  0  0  0
  7  8  1  0  0  0
  8  9  1  0  0  0
  9 10  1  0  0  0
 10  1  1  0  0  0
  1  2  1  0  0  0
  2  3  2  0  0  0
  3  4  1  0  0  0
  4  5  2  0  0  0
  5 17  1  0  0  0
 17 18  1  0  0  0
 18 19  1  0  0  0
 19 20  2  0  0  0
 20 21  1  0  0  0
 21 22  2  0  0  0
 22 23  1  0  0  0
 23 24  2  0  0  0
  5  6  1  0  0  0
 10 11  1  0  0  0
 11 12  1  0  0  0
 12  7  1  0  0  0
  6  1  2  0  0  0
 24 19  1  0  0  0
M  END
> <minimizedAffinity>
-8.80612

$$$$
OCNT-2311748


 27 30  0  0  0  0  0  0  0  0999 V2000
   -2.7136   26.3816    3.2420 N   0  0  0  0  0  0  0  0  0  0  0  0
   -2.2095   27.0246    2.6350 H   0  0  0  0  0  0  0  0  0  0  0  0
   -5.8472   23.4652    0.9225 C   0  0  0  0  0  0  0  0  0  0  0  0
   -5.2512   24.5048    1.7259 N   0  0  0  0  0  0  0  0  0  0  0  0
   -3.9229   24.6996    1.9554 C   0  0  0  0  0  0  0  0  0  0  0  0
   -3.8438   25.7986    2.7726 C   0  0  0  0  0  0  0  0  0  0  0  0
   -5.2003   26.1958    3.0105 C   0  0  0  0  0  0  0  0  0  0  0  0
   -6.0463   25.4058    2.3243 N   0  0  0  0  0  0  0  0  0  0  0  0
   -5.7039   27.2912    3.8403 C   0  0  0  0  0  0  0  0  0  0  0  0
   -6.1000   27.0679    5.1664 C   0  0  0  0  0  0  0  0  0  0  0  0
   -6.5714   28.1221    5.9531 C   0  0  0  0  0  0  0  0  0  0  0  0
   -6.6582   29.4068    5.4191 C   0  0  0  0  0  0  0  0  0  0  0  0
   -6.2814   29.6385    4.0974 C   0  0  0  0  0  0  0  0  0  0  0  0
   -5.8101   28.5849    3.3105 C   0  0  0  0  0  0  0  0  0  0  0  0
   -1.8930   25.7865    4.2765 C   0  0  0  0  0  0  0  0  0  0  0  0
   -1.7092   26.6924    5.4376 C   0  0  0  0  0  0  0  0  0  0  0  0
   -2.5322   27.6340    6.0150 C   0  0  0  0  0  0  0  0  0  0  0  0
   -1.7968   28.1845    7.1012 C   0  0  0  0  0  0  0  0  0  0  0  0
   -0.5868   27.6035    7.1782 N   0  0  0  0  0  0  0  0  0  0  0  0
   -0.5586   26.7245    6.1675 N   0  0  0  0  0  0  0  0  0  0  0  0
    0.2871   26.1793    6.0321 H   0  0  0  0  0  0  0  0  0  0  0  0
   -2.2081   29.2275    8.0478 C   0  0  0  0  0  0  0  0  0  0  0  0
   -1.2609   30.0968    8.5986 C   0  0  0  0  0  0  0  0  0  0  0  0
   -1.6831   31.0695    9.4889 C   0  0  0  0  0  0  0  0  0  0  0  0
   -2.9682   31.2352    9.8648 N   0  0  0  0  0  0  0  0  0  0  0  0
   -3.8684   30.3893    9.3239 C   0  0  0  0  0  0  0  0  0  0  0  0
   -3.5444   29.3845    8.4249 C   0  0  0  0  0  0  0  0  0  0  0  0
  3  4  1  0  0  0
  4  5  1  0  0  0
  5  6  2  0  0  0
  6  1  1  0  0  0
  1 15  1  0  0  0
 15 16  1  0  0  0
 16 17  2  0  0  0
 17 18  1  0  0  0
 18 22  1  0  0  0
 22 23  2  0  0  0
 23 24  1  0  0  0
 24 25  2  0  0  0
 25 26  1  0  0  0
 26 27  2  0  0  0
 18 19  2  0  0  0
 19 20  1  0  0  0
  6  7  1  0  0  0
  7  9  1  0  0  0
  9 10  2  0  0  0
 10 11  1  0  0  0
 11 12  2  0  0  0
 12 13  1  0  0  0
 13 14  2  0  0  0
  7  8  2  0  0  0
  8  4  1  0  0  0
 20 16  1  0  0  0
 14  9  1  0  0  0
 27 22  1  0  0  0
  1  2  1  0  0  0
 20 21  1  0  0  0
M  END
> <minimizedAffinity>
-9.54835

$$$$
OCNT-2311751


 27 30  0  0  0  0  0  0  0  0999 V2000
   -5.1432   26.4774    5.2488 O   0  0  0  0  0  0  0  0  0  0  0  0
   -4.0471   26.2228    4.7693 C   0  0  0  0  0  0  0  0  0  0  0  0
   -3.7788   25.5413    3.6149 N   0  0  0  0  0  0  0  0  0  0  0  0
   -2.8002   25.4244    3.3741 H   0  0  0  0  0  0  0  0  0  0  0  0
   -4.6392   24.9780    2.7074 C   0  0  0  0  0  0  0  0  0  0  0  0
   -5.2302   25.8350    1.8657 N   0  0  0  0  0  0  0  0  0  0  0  0
   -6.0049   25.0646    1.0938 N   0  0  0  0  0  0  0  0  0  0  0  0
   -5.9495   23.7354    1.3939 C   0  0  0  0  0  0  0  0  0  0  0  0
   -6.6014   22.6388    0.8246 C   0  0  0  0  0  0  0  0  0  0  0  0
   -7.6932   22.8329   -0.4864 Cl  0  0  0  0  0  0  0  0  0  0  0  0
   -6.3416   21.3747    1.3513 C   0  0  0  0  0  0  0  0  0  0  0  0
   -5.4552   21.2255    2.4136 C   0  0  0  0  0  0  0  0  0  0  0  0
   -4.8093   22.3393    2.9726 C   0  0  0  0  0  0  0  0  0  0  0  0
   -5.0543   23.6314    2.4593 C   0  0  0  0  0  0  0  0  0  0  0  0
   -6.5586   25.5050    0.3668 H   0  0  0  0  0  0  0  0  0  0  0  0
   -2.8051   26.6563    5.4264 C   0  0  0  0  0  0  0  0  0  0  0  0
   -1.5369   26.4093    4.9363 C   0  0  0  0  0  0  0  0  0  0  0  0
   -0.3567   27.0723    5.9828 S   0  0  0  0  0  0  0  0  0  0  0  0
   -1.6036   27.6296    7.0299 C   0  0  0  0  0  0  0  0  0  0  0  0
   -2.8311   27.3698    6.6297 N   0  0  0  0  0  0  0  0  0  0  0  0
   -1.2667   28.3926    8.2772 C   0  0  0  0  0  0  0  0  0  0  0  0
   -1.7141   29.8550    8.2842 C   0  0  0  0  0  0  0  0  0  0  0  0
   -0.8108   30.8366    9.0316 C   0  0  0  0  0  0  0  0  0  0  0  0
   -1.7568   31.9260    9.5314 C   0  0  0  0  0  0  0  0  0  0  0  0
   -3.0723   31.5886    8.9856 N   0  0  0  0  0  0  0  0  0  0  0  0
   -3.0901   30.1289    8.8740 C   0  0  0  0  0  0  0  0  0  0  0  0
   -3.8140   31.9119    9.6050 H   0  0  0  0  0  0  0  0  0  0  0  0
  1  2  2  0  0  0
  2  3  1  0  0  0
  3  5  1  0  0  0
  5  6  2  0  0  0
  6  7  1  0  0  0
  7  8  1  0  0  0
  8  9  2  0  0  0
  9 10  1  0  0  0
  9 11  1  0  0  0
 11 12  2  0  0  0
 12 13  1  0  0  0
 13 14  2  0  0  0
  2 16  1  0  0  0
 16 17  2  0  0  0
 17 18  1  0  0  0
 18 19  1  0  0  0
 19 21  1  0  0  0
 21 22  1  0  0  0
 22 23  1  0  0  0
 23 24  1  0  0  0
 24 25  1  0  0  0
 25 26  1  0  0  0
 19 20  2  0  0  0
 14  5  1  0  0  0
 20 16  1  0  0  0
 14  8  1  0  0  0
 26 22  1  0  0  0
  3  4  1  0  0  0
  7 15  1  0  0  0
 25 27  1  0  0  0
M  END
> <minimizedAffinity>
-9.15955

$$$$
OCNT-2311754


 25 27  0  0  0  0  0  0  0  0999 V2000
   -5.0847   30.2272    5.2810 N   0  0  0  0  0  0  0  0  0  0  0  0
   -4.3682   29.7816    4.7105 H   0  0  0  0  0  0  0  0  0  0  0  0
   -4.6675   30.2080    6.6822 C   0  0  0  0  0  0  0  0  0  0  0  0
   -1.0148   26.8007    6.3498 C   0  0  0  0  0  0  0  0  0  0  0  0
   -1.7856   27.9735    6.6827 N   0  0  0  0  0  0  0  0  0  0  0  0
   -3.0445   28.2713    6.2732 C   0  0  0  0  0  0  0  0  0  0  0  0
   -3.3687   29.4907    6.8412 C   0  0  0  0  0  0  0  0  0  0  0  0
   -2.2090   29.8378    7.6166 C   0  0  0  0  0  0  0  0  0  0  0  0
   -1.2570   28.8986    7.4893 N   0  0  0  0  0  0  0  0  0  0  0  0
   -1.9530   31.0335    8.5376 C   0  0  0  0  0  0  0  0  0  0  0  0
   -1.9895   32.3671    7.7676 C   0  0  0  0  0  0  0  0  0  0  0  0
   -0.5581   30.9475    9.2093 C   0  0  0  0  0  0  0  0  0  0  0  0
   -3.0044   31.0635    9.6646 C   0  0  0  0  0  0  0  0  0  0  0  0
   -6.3643   29.5690    5.0492 C   0  0  0  0  0  0  0  0  0  0  0  0
   -6.1498   28.1841    4.5013 C   0  0  0  0  0  0  0  0  0  0  0  0
   -5.8342   27.9668    3.1587 C   0  0  0  0  0  0  0  0  0  0  0  0
   -5.6570   26.6659    2.6849 C   0  0  0  0  0  0  0  0  0  0  0  0
   -5.8063   25.6053    3.5746 C   0  0  0  0  0  0  0  0  0  0  0  0
   -6.1225   25.7914    4.8820 N   0  0  0  0  0  0  0  0  0  0  0  0
   -6.2956   27.0639    5.3092 C   0  0  0  0  0  0  0  0  0  0  0  0
   -5.6309   24.2649    3.1341 N   0  0  0  0  0  0  0  0  0  0  0  0
   -5.4119   23.1261    3.8790 C   0  0  0  0  0  0  0  0  0  0  0  0
   -5.3156   22.0968    2.9709 C   0  0  0  0  0  0  0  0  0  0  0  0
   -5.4671   22.5566    1.6937 N   0  0  0  0  0  0  0  0  0  0  0  0
   -5.6526   23.8533    1.8195 C   0  0  0  0  0  0  0  0  0  0  0  0
  4  5  1  0  0  0
  5  6  1  0  0  0
  6  7  2  0  0  0
  7  3  1  0  0  0
  3  1  1  0  0  0
  1 14  1  0  0  0
 14 15  1  0  0  0
 15 16  2  0  0  0
 16 17  1  0  0  0
 17 18  2  0  0  0
 18 21  1  0  0  0
 21 22  1  0  0  0
 22 23  2  0  0  0
 23 24  1  0  0  0
 24 25  2  0  0  0
 18 19  1  0  0  0
 19 20  2  0  0  0
  7  8  1  0  0  0
  8 10  1  0  0  0
 10 11  1  0  0  0
 10 12  1  0  0  0
 10 13  1  0  0  0
  8  9  2  0  0  0
  9  5  1  0  0  0
 20 15  1  0  0  0
 25 21  1  0  0  0
  1  2  1  0  0  0
M  END
> <minimizedAffinity>
-8.49071

$$$$
OCNT-2311760


 27 30  0  0  0  0  0  0  0  0999 V2000
   -6.6817   30.5564    7.6382 O   0  0  0  0  0  0  0  0  0  0  0  0
   -6.3441   29.3883    7.4593 C   0  0  0  0  0  0  0  0  0  0  0  0
   -5.2619   28.8209    8.1021 N   0  0  0  0  0  0  0  0  0  0  0  0
   -4.8989   27.9530    7.7253 H   0  0  0  0  0  0  0  0  0  0  0  0
   -7.1412   28.4468    6.5688 C   0  0  0  0  0  0  0  0  0  0  0  0
   -6.5354   28.2554    5.2118 C   0  0  0  0  0  0  0  0  0  0  0  0
   -6.1910   29.2522    4.3186 C   0  0  0  0  0  0  0  0  0  0  0  0
   -5.6606   28.6664    3.2006 N   0  0  0  0  0  0  0  0  0  0  0  0
   -5.6581   27.2978    3.3369 C   0  0  0  0  0  0  0  0  0  0  0  0
   -5.2184   26.3060    2.4501 C   0  0  0  0  0  0  0  0  0  0  0  0
   -5.3319   24.9764    2.8634 C   0  0  0  0  0  0  0  0  0  0  0  0
   -5.8608   24.6677    4.1098 C   0  0  0  0  0  0  0  0  0  0  0  0
   -5.9567   23.3826    4.4775 F   0  0  0  0  0  0  0  0  0  0  0  0
   -6.2955   25.6596    4.9886 C   0  0  0  0  0  0  0  0  0  0  0  0
   -6.1936   27.0086    4.5938 C   0  0  0  0  0  0  0  0  0  0  0  0
   -5.3127   29.1620    2.3908 H   0  0  0  0  0  0  0  0  0  0  0  0
   -4.3591   29.6403    8.9022 C   0  0  0  0  0  0  0  0  0  0  0  0
   -3.3515   30.4620    8.0513 C   0  0  0  0  0  0  0  0  0  0  0  0
   -3.2434   31.8748    8.5168 N   0  0  0  0  0  0  0  0  0  0  0  0
   -2.4212   32.0211    9.7287 C   0  0  0  0  0  0  0  0  0  0  0  0
   -0.9528   31.6126    9.5016 C   0  0  0  0  0  0  0  0  0  0  0  0
   -0.9058   30.3371    8.7258 C   0  0  0  0  0  0  0  0  0  0  0  0
   -1.9846   29.8186    8.0356 C   0  0  0  0  0  0  0  0  0  0  0  0
   -1.6153   28.6224    7.3423 C   0  0  0  0  0  0  0  0  0  0  0  0
   -0.2946   28.2849    7.5497 C   0  0  0  0  0  0  0  0  0  0  0  0
    0.5044   29.4054    8.5680 S   0  0  0  0  0  0  0  0  0  0  0  0
   -4.1932   32.1942    8.7059 H   0  0  0  0  0  0  0  0  0  0  0  0
  1  2  2  0  0  0
  2  5  1  0  0  0
  5  6  1  0  0  0
  6  7  2  0  0  0
  7  8  1  0  0  0
  8  9  1  0  0  0
  9 10  2  0  0  0
 10 11  1  0  0  0
 11 12  2  0  0  0
 12 13  1  0  0  0
 12 14  1  0  0  0
 14 15  2  0  0  0
  2  3  1  0  0  0
  3 17  1  0  0  0
 17 18  1  0  0  0
 18 19  1  0  0  0
 19 20  1  0  0  0
 20 21  1  0  0  0
 21 22  1  0  0  0
 22 23  2  0  0  0
 23 24  1  0  0  0
 24 25  2  0  0  0
 25 26  1  0  0  0
 15  6  1  0  0  0
 23 18  1  0  0  0
 15  9  1  0  0  0
 26 22  1  0  0  0
  8 16  1  0  0  0
  3  4  1  0  0  0
 19 27  1  0  0  0
M  END
> <minimizedAffinity>
-9.39823

$$$$
OCNT-2311765


 25 27  0  0  0  0  0  0  0  0999 V2000
   -4.2994   26.8267    5.2949 N   0  0  0  0  0  0  0  0  0  0  0  0
   -2.8884   26.7906    5.6831 C   0  0  0  0  0  0  0  0  0  0  0  0
   -2.6492   28.1341    6.4017 C   0  0  0  0  0  0  0  0  0  0  0  0
   -1.7490   28.0388    7.4996 O   0  0  0  0  0  0  0  0  0  0  0  0
   -4.0467   28.5004    6.9022 C   0  0  0  0  0  0  0  0  0  0  0  0
   -4.9430   28.0556    5.7442 C   0  0  0  0  0  0  0  0  0  0  0  0
   -0.9069   27.7002    7.1467 H   0  0  0  0  0  0  0  0  0  0  0  0
   -6.0206   23.5528    1.1066 C   0  0  0  0  0  0  0  0  0  0  0  0
   -5.9311   22.1735    1.3065 C   0  0  0  0  0  0  0  0  0  0  0  0
   -5.4262   21.6781    2.5052 C   0  0  0  0  0  0  0  0  0  0  0  0
   -5.0127   22.5604    3.5036 C   0  0  0  0  0  0  0  0  0  0  0  0
   -5.0888   23.9352    3.3412 C   0  0  0  0  0  0  0  0  0  0  0  0
   -4.6714   24.7235    4.3488 N   0  0  0  0  0  0  0  0  0  0  0  0
   -4.7229   26.0694    4.2293 C   0  0  0  0  0  0  0  0  0  0  0  0
   -5.2235   26.6459    3.0693 C   0  0  0  0  0  0  0  0  0  0  0  0
   -5.6576   25.8363    2.0206 C   0  0  0  0  0  0  0  0  0  0  0  0
   -5.5990   24.4403    2.1318 C   0  0  0  0  0  0  0  0  0  0  0  0
   -7.8794   23.9426   -0.3464 C   0  0  0  0  0  0  0  0  0  0  0  0
   -6.5051   24.1379   -0.0389 O   0  0  0  0  0  0  0  0  0  0  0  0
   -4.2212   29.9392    7.3789 C   0  0  0  0  0  0  0  0  0  0  0  0
   -3.5529   31.0078    6.5401 C   0  0  0  0  0  0  0  0  0  0  0  0
   -4.2715   31.3803    5.4403 N   0  0  0  0  0  0  0  0  0  0  0  0
   -2.4564   31.5015    6.7649 O   0  0  0  0  0  0  0  0  0  0  0  0
   -3.9026   32.1524    4.8999 H   0  0  0  0  0  0  0  0  0  0  0  0
   -5.2572   31.1718    5.3537 H   0  0  0  0  0  0  0  0  0  0  0  0
 18 19  1  0  0  0
 19  8  1  0  0  0
  8  9  1  0  0  0
  9 10  2  0  0  0
 10 11  1  0  0  0
 11 12  2  0  0  0
 12 13  1  0  0  0
 13 14  2  0  0  0
 14  1  1  0  0  0
  1  2  1  0  0  0
  2  3  1  0  0  0
  3  4  1  0  0  0
  3  5  1  0  0  0
  5 20  1  0  0  0
 20 21  1  0  0  0
 21 22  1  0  0  0
 21 23  2  0  0  0
  5  6  1  0  0  0
 14 15  1  0  0  0
 15 16  2  0  0  0
 16 17  1  0  0  0
 17  8  2  0  0  0
 17 12  1  0  0  0
  6  1  1  0  0  0
  4  7  1  0  0  0
 22 24  1  0  0  0
 22 25  1  0  0  0
M  END
> <minimizedAffinity>
-8.31932

$$$$
OCNT-2311766


 26 27  0  0  0  0  0  0  0  0999 V2000
   -4.3496   29.7854    7.0185 C   0  0  0  0  0  0  0  0  0  0  0  0
   -3.0883   29.2992    6.4882 N   0  0  0  0  0  0  0  0  0  0  0  0
   -2.3617   30.0145    6.5012 H   0  0  0  0  0  0  0  0  0  0  0  0
   -2.5352   28.0672    7.0736 C   0  0  0  0  0  0  0  0  0  0  0  0
   -1.9509   27.2038    5.9420 C   0  0  0  0  0  0  0  0  0  0  0  0
   -2.7947   26.6571    4.9760 C   0  0  0  0  0  0  0  0  0  0  0  0
   -2.2436   25.8852    3.9568 C   0  0  0  0  0  0  0  0  0  0  0  0
   -0.8705   25.6814    3.9220 C   0  0  0  0  0  0  0  0  0  0  0  0
   -0.0988   26.2616    4.9138 C   0  0  0  0  0  0  0  0  0  0  0  0
   -0.6017   27.0122    5.9175 N   0  0  0  0  0  0  0  0  0  0  0  0
   -1.3968   28.3027    8.1051 C   0  0  0  0  0  0  0  0  0  0  0  0
   -0.5909   29.6120    8.0082 C   0  0  0  0  0  0  0  0  0  0  0  0
   -0.9973   30.6337    9.0704 C   0  0  0  0  0  0  0  0  0  0  0  0
    0.9054   29.3036    8.1447 C   0  0  0  0  0  0  0  0  0  0  0  0
   -5.3885   28.6919    7.3568 C   0  0  0  0  0  0  0  0  0  0  0  0
   -5.9602   28.9949    8.7533 C   0  0  0  0  0  0  0  0  0  0  0  0
   -5.0793   28.5432    9.7750 O   0  0  0  0  0  0  0  0  0  0  0  0
   -4.2637   29.0689    9.7093 H   0  0  0  0  0  0  0  0  0  0  0  0
   -6.5361   28.6250    6.3117 C   0  0  0  0  0  0  0  0  0  0  0  0
   -6.0108   29.6917    3.5119 C   0  0  0  0  0  0  0  0  0  0  0  0
   -6.0238   28.2193    3.8218 C   0  0  0  0  0  0  0  0  0  0  0  0
   -5.8187   27.3118    2.7668 C   0  0  0  0  0  0  0  0  0  0  0  0
   -5.8405   25.9356    2.9856 C   0  0  0  0  0  0  0  0  0  0  0  0
   -6.0807   25.4438    4.2620 C   0  0  0  0  0  0  0  0  0  0  0  0
   -6.2945   26.3300    5.3170 C   0  0  0  0  0  0  0  0  0  0  0  0
   -6.2570   27.7238    5.1214 C   0  0  0  0  0  0  0  0  0  0  0  0
 20 21  1  0  0  0
 21 22  2  0  0  0
 22 23  1  0  0  0
 23 24  2  0  0  0
 24 25  1  0  0  0
 25 26  2  0  0  0
 26 19  1  0  0  0
 19 15  1  0  0  0
 15 16  1  0  0  0
 16 17  1  0  0  0
 15  1  1  0  0  0
  1  2  1  0  0  0
  2  4  1  0  0  0
  4 11  1  0  0  0
 11 12  1  0  0  0
 12 13  1  0  0  0
 12 14  1  0  0  0
  4  5  1  0  0  0
  5  6  2  0  0  0
  6  7  1  0  0  0
  7  8  2  0  0  0
  8  9  1  0  0  0
  9 10  2  0  0  0
 26 21  1  0  0  0
 10  5  1  0  0  0
 17 18  1  0  0  0
  2  3  1  0  0  0
M  END
> <minimizedAffinity>
-8.60057

$$$$
OCNT-2311769


 25 27  0  0  0  0  0  0  0  0999 V2000
   -4.1433   27.7916    5.5745 C   0  0  0  0  0  0  0  0  0  0  0  0
   -3.7379   27.8910    6.9907 N   0  0  0  0  0  0  0  0  0  0  0  0
   -4.4362   28.3700    7.5432 H   0  0  0  0  0  0  0  0  0  0  0  0
   -2.4509   28.3670    7.2279 C   0  0  0  0  0  0  0  0  0  0  0  0
   -1.3982   27.8227    6.5763 N   0  0  0  0  0  0  0  0  0  0  0  0
   -0.1602   28.3013    6.7964 C   0  0  0  0  0  0  0  0  0  0  0  0
    0.1974   29.3060    7.6027 N   0  0  0  0  0  0  0  0  0  0  0  0
   -0.8513   29.8419    8.2598 C   0  0  0  0  0  0  0  0  0  0  0  0
   -2.1595   29.4045    8.1121 C   0  0  0  0  0  0  0  0  0  0  0  0
   -2.8878   30.1926    8.9670 N   0  0  0  0  0  0  0  0  0  0  0  0
   -4.3026   30.1184    9.2453 C   0  0  0  0  0  0  0  0  0  0  0  0
   -2.1569   31.1332    9.6097 N   0  0  0  0  0  0  0  0  0  0  0  0
   -0.9119   30.8995    9.1843 C   0  0  0  0  0  0  0  0  0  0  0  0
   -5.6412   27.3558    5.3877 C   0  0  0  0  0  0  0  0  0  0  0  0
   -6.0102   24.4016    2.2010 C   0  0  0  0  0  0  0  0  0  0  0  0
   -6.2560   24.0578    3.5311 C   0  0  0  0  0  0  0  0  0  0  0  0
   -6.1542   25.0190    4.5411 C   0  0  0  0  0  0  0  0  0  0  0  0
   -5.8108   26.3481    4.2425 C   0  0  0  0  0  0  0  0  0  0  0  0
   -5.5907   26.6895    2.8997 C   0  0  0  0  0  0  0  0  0  0  0  0
   -5.6948   25.7267    1.8906 C   0  0  0  0  0  0  0  0  0  0  0  0
   -7.4183   23.9682   -0.1391 C   0  0  0  0  0  0  0  0  0  0  0  0
   -6.1191   23.2126    0.8765 S   0  0  0  0  0  0  0  0  0  0  0  0
   -6.5828   28.5054    5.3609 N   0  0  0  0  0  0  0  0  0  0  0  0
   -6.0075   29.6820    4.7093 C   0  0  0  0  0  0  0  0  0  0  0  0
   -7.1802   28.8704    6.6395 C   0  0  0  0  0  0  0  0  0  0  0  0
 21 22  1  0  0  0
 22 15  1  0  0  0
 15 16  1  0  0  0
 16 17  2  0  0  0
 17 18  1  0  0  0
 18 14  1  0  0  0
 14  1  1  0  0  0
  1  2  1  0  0  0
  2  4  1  0  0  0
  4  5  1  0  0  0
  5  6  2  0  0  0
  6  7  1  0  0  0
  7  8  2  0  0  0
  8  9  1  0  0  0
  9 10  1  0  0  0
 10 11  1  0  0  0
 10 12  1  0  0  0
 12 13  2  0  0  0
 14 23  1  0  0  0
 23 24  1  0  0  0
 23 25  1  0  0  0
 18 19  2  0  0  0
 19 20  1  0  0  0
 20 15  2  0  0  0
  9  4  2  0  0  0
 13  8  1  0  0  0
  2  3  1  0  0  0
M  END
> <minimizedAffinity>
-8.16972

$$$$
OCNT-2311777


 33 36  0  0  0  0  0  0  0  0999 V2000
   -6.8284   30.5321    7.2190 C   0  0  0  0  0  0  0  0  0  0  0  0
   -7.8781   30.8715    6.6871 O   0  0  0  0  0  0  0  0  0  0  0  0
   -5.8530   29.7119    6.6691 N   0  0  0  0  0  0  0  0  0  0  0  0
   -5.0372   29.5417    7.2444 H   0  0  0  0  0  0  0  0  0  0  0  0
   -5.8732   29.0779    5.4087 C   0  0  0  0  0  0  0  0  0  0  0  0
   -5.9487   29.7612    4.1924 C   0  0  0  0  0  0  0  0  0  0  0  0
   -5.9930   29.0621    2.9812 C   0  0  0  0  0  0  0  0  0  0  0  0
   -5.9504   27.6705    2.9734 C   0  0  0  0  0  0  0  0  0  0  0  0
   -5.8485   26.9769    4.1809 C   0  0  0  0  0  0  0  0  0  0  0  0
   -5.8250   27.6773    5.3966 C   0  0  0  0  0  0  0  0  0  0  0  0
   -5.7980   25.4912    4.1464 C   0  0  0  0  0  0  0  0  0  0  0  0
   -5.6879   24.8879    5.2057 O   0  0  0  0  0  0  0  0  0  0  0  0
   -5.9213   24.9418    2.8826 N   0  0  0  0  0  0  0  0  0  0  0  0
   -6.1512   25.5760    2.1283 H   0  0  0  0  0  0  0  0  0  0  0  0
   -5.8666   23.5725    2.5422 C   0  0  0  0  0  0  0  0  0  0  0  0
   -6.2771   23.2125    1.2578 C   0  0  0  0  0  0  0  0  0  0  0  0
   -6.2267   21.8759    0.8945 C   0  0  0  0  0  0  0  0  0  0  0  0
   -5.7987   20.8935    1.7110 N   0  0  0  0  0  0  0  0  0  0  0  0
   -5.4058   21.2665    2.9474 C   0  0  0  0  0  0  0  0  0  0  0  0
   -5.4193   22.5756    3.4031 C   0  0  0  0  0  0  0  0  0  0  0  0
   -6.4376   30.9944    8.6106 C   0  0  0  0  0  0  0  0  0  0  0  0
   -5.4516   30.0381    9.2750 C   0  0  0  0  0  0  0  0  0  0  0  0
    1.2758   29.1516    8.0522 C   0  0  0  0  0  0  0  0  0  0  0  0
   -0.1531   29.4591    8.3972 C   0  0  0  0  0  0  0  0  0  0  0  0
   -1.1592   28.5338    8.1021 C   0  0  0  0  0  0  0  0  0  0  0  0
   -2.5025   28.8091    8.3888 C   0  0  0  0  0  0  0  0  0  0  0  0
   -2.8498   30.0429    8.9740 C   0  0  0  0  0  0  0  0  0  0  0  0
   -4.0858   30.6401    9.3830 C   0  0  0  0  0  0  0  0  0  0  0  0
   -3.7783   31.8862    9.8939 C   0  0  0  0  0  0  0  0  0  0  0  0
   -2.4235   32.0623    9.8114 N   0  0  0  0  0  0  0  0  0  0  0  0
   -1.8325   30.9555    9.2488 C   0  0  0  0  0  0  0  0  0  0  0  0
   -0.4842   30.6977    8.9682 C   0  0  0  0  0  0  0  0  0  0  0  0
   -1.9219   32.8828   10.1212 H   0  0  0  0  0  0  0  0  0  0  0  0
 23 24  1  0  0  0
 24 25  2  0  0  0
 25 26  1  0  0  0
 26 27  2  0  0  0
 27 28  1  0  0  0
 28 22  1  0  0  0
 22 21  1  0  0  0
 21  1  1  0  0  0
  1  2  2  0  0  0
  1  3  1  0  0  0
  3  5  1  0  0  0
  5  6  2  0  0  0
  6  7  1  0  0  0
  7  8  2  0  0  0
  8  9  1  0  0  0
  9 11  1  0  0  0
 11 12  2  0  0  0
 11 13  1  0  0  0
 13 15  1  0  0  0
 15 16  2  0  0  0
 16 17  1  0  0  0
 17 18  2  0  0  0
 18 19  1  0  0  0
 19 20  2  0  0  0
  9 10  2  0  0  0
 28 29  2  0  0  0
 29 30  1  0  0  0
 30 31  1  0  0  0
 31 32  2  0  0  0
 32 24  1  0  0  0
 31 27  1  0  0  0
 10  5  1  0  0  0
 20 15  1  0  0  0
  3  4  1  0  0  0
 13 14  1  0  0  0
 30 33  1  0  0  0
M  END
> <minimizedAffinity>
-10.81211

$$$$
OCNT-2311787


 33 37  0  0  0  0  0  0  0  0999 V2000
   -6.1922   27.8494    3.9170 N   0  0  0  0  0  0  0  0  0  0  0  0
   -5.3685   26.8521    3.4488 C   0  0  0  0  0  0  0  0  0  0  0  0
   -4.2397   27.0260    3.0102 O   0  0  0  0  0  0  0  0  0  0  0  0
   -7.1654   27.6340    4.0917 H   0  0  0  0  0  0  0  0  0  0  0  0
   -5.9735   25.5040    3.4128 C   0  0  0  0  0  0  0  0  0  0  0  0
   -6.2529   24.9301    4.6540 C   0  0  0  0  0  0  0  0  0  0  0  0
   -6.7638   23.6451    4.6889 C   0  0  0  0  0  0  0  0  0  0  0  0
   -7.0071   22.9565    3.5453 N   0  0  0  0  0  0  0  0  0  0  0  0
   -6.7637   23.5216    2.3502 C   0  0  0  0  0  0  0  0  0  0  0  0
   -7.0432   22.7866    1.2057 C   0  0  0  0  0  0  0  0  0  0  0  0
   -6.8370   23.3030   -0.0755 C   0  0  0  0  0  0  0  0  0  0  0  0
   -6.3447   24.5910   -0.2256 C   0  0  0  0  0  0  0  0  0  0  0  0
   -6.0525   25.3482    0.9068 C   0  0  0  0  0  0  0  0  0  0  0  0
   -6.2435   24.8198    2.2098 C   0  0  0  0  0  0  0  0  0  0  0  0
   -7.0785   22.9296    5.9430 C   0  0  0  0  0  0  0  0  0  0  0  0
   -8.3891   22.9069    6.4437 C   0  0  0  0  0  0  0  0  0  0  0  0
   -8.6612   22.2301    7.6223 C   0  0  0  0  0  0  0  0  0  0  0  0
   -7.7298   21.5715    8.3397 N   0  0  0  0  0  0  0  0  0  0  0  0
   -6.4745   21.5871    7.8506 C   0  0  0  0  0  0  0  0  0  0  0  0
   -6.1069   22.2375    6.6807 C   0  0  0  0  0  0  0  0  0  0  0  0
   -5.8365   29.2427    3.7857 C   0  0  0  0  0  0  0  0  0  0  0  0
   -7.8764   29.9297    6.2320 C   0  0  0  0  0  0  0  0  0  0  0  0
   -6.3966   30.0586    6.2033 C   0  0  0  0  0  0  0  0  0  0  0  0
   -5.7474   30.4872    7.2901 N   0  0  0  0  0  0  0  0  0  0  0  0
   -4.4349   30.4896    6.9499 N   0  0  0  0  0  0  0  0  0  0  0  0
   -4.2605   30.0496    5.6554 C   0  0  0  0  0  0  0  0  0  0  0  0
   -5.5086   29.7594    5.1397 C   0  0  0  0  0  0  0  0  0  0  0  0
   -3.4385   30.9032    7.8792 C   0  0  0  0  0  0  0  0  0  0  0  0
   -3.6653   31.9628    8.7688 C   0  0  0  0  0  0  0  0  0  0  0  0
   -2.6667   32.3466    9.6694 C   0  0  0  0  0  0  0  0  0  0  0  0
   -1.4427   31.6799    9.6886 C   0  0  0  0  0  0  0  0  0  0  0  0
   -1.2107   30.6258    8.8081 C   0  0  0  0  0  0  0  0  0  0  0  0
   -2.2031   30.2368    7.9059 C   0  0  0  0  0  0  0  0  0  0  0  0
 22 23  1  0  0  0
 23 24  2  0  0  0
 24 25  1  0  0  0
 25 28  1  0  0  0
 28 29  2  0  0  0
 29 30  1  0  0  0
 30 31  2  0  0  0
 31 32  1  0  0  0
 32 33  2  0  0  0
 25 26  1  0  0  0
 26 27  2  0  0  0
 27 21  1  0  0  0
 21  1  1  0  0  0
  1  2  1  0  0  0
  2  3  2  0  0  0
  2  5  1  0  0  0
  5  6  2  0  0  0
  6  7  1  0  0  0
  7 15  1  0  0  0
 15 16  2  0  0  0
 16 17  1  0  0  0
 17 18  2  0  0  0
 18 19  1  0  0  0
 19 20  2  0  0  0
  7  8  2  0  0  0
  8  9  1  0  0  0
  9 10  2  0  0  0
 10 11  1  0  0  0
 11 12  2  0  0  0
 12 13  1  0  0  0
 13 14  2  0  0  0
 27 23  1  0  0  0
 14  5  1  0  0  0
 33 28  1  0  0  0
 20 15  1  0  0  0
 14  9  1  0  0  0
  1  4  1  0  0  0
M  END
> <minimizedAffinity>
-10.61029

$$$$
OCNT-2311790


 30 32  0  0  0  0  0  0  0  0999 V2000
   -2.4671   28.2161    6.9459 C   0  0  0  0  0  0  0  0  0  0  0  0
   -2.5651   27.7738    8.0855 O   0  0  0  0  0  0  0  0  0  0  0  0
   -2.4927   29.5409    6.5588 N   0  0  0  0  0  0  0  0  0  0  0  0
   -2.5487   29.7396    5.5660 H   0  0  0  0  0  0  0  0  0  0  0  0
    0.5421   25.5172    3.9929 C   0  0  0  0  0  0  0  0  0  0  0  0
   -0.8358   25.9416    4.4074 C   0  0  0  0  0  0  0  0  0  0  0  0
   -1.0193   26.8564    5.4442 C   0  0  0  0  0  0  0  0  0  0  0  0
   -2.3133   27.2535    5.8170 C   0  0  0  0  0  0  0  0  0  0  0  0
   -3.4537   26.7193    5.1747 C   0  0  0  0  0  0  0  0  0  0  0  0
   -4.7464   27.1616    5.5331 N   0  0  0  0  0  0  0  0  0  0  0  0
   -5.8406   26.2903    5.1470 C   0  0  0  0  0  0  0  0  0  0  0  0
   -5.7600   26.0303    3.6551 C   0  0  0  0  0  0  0  0  0  0  0  0
   -4.4631   25.2780    3.3247 C   0  0  0  0  0  0  0  0  0  0  0  0
   -4.2897   25.2503    1.8007 C   0  0  0  0  0  0  0  0  0  0  0  0
   -3.2657   25.8530    4.0736 C   0  0  0  0  0  0  0  0  0  0  0  0
   -1.9583   25.4581    3.7246 C   0  0  0  0  0  0  0  0  0  0  0  0
   -4.7672   27.4234    6.5268 H   0  0  0  0  0  0  0  0  0  0  0  0
   -2.6702   30.6879    7.3675 C   0  0  0  0  0  0  0  0  0  0  0  0
   -1.6437   31.2557    8.1258 C   0  0  0  0  0  0  0  0  0  0  0  0
   -1.9086   32.3351    8.9671 C   0  0  0  0  0  0  0  0  0  0  0  0
   -3.1990   32.8449    9.0579 C   0  0  0  0  0  0  0  0  0  0  0  0
   -4.2292   32.2949    8.2896 C   0  0  0  0  0  0  0  0  0  0  0  0
   -3.9829   31.2347    7.4090 C   0  0  0  0  0  0  0  0  0  0  0  0
   -4.9654   30.6618    6.5706 N   0  0  0  0  0  0  0  0  0  0  0  0
   -5.1559   31.3255    5.8144 H   0  0  0  0  0  0  0  0  0  0  0  0
   -6.2339   30.1363    7.1298 C   0  0  0  0  0  0  0  0  0  0  0  0
   -7.2909   29.7210    6.0963 C   0  0  0  0  0  0  0  0  0  0  0  0
   -6.7874   29.6252    4.8487 F   0  0  0  0  0  0  0  0  0  0  0  0
   -7.8332   28.5229    6.4203 F   0  0  0  0  0  0  0  0  0  0  0  0
   -8.2984   30.6240    6.0587 F   0  0  0  0  0  0  0  0  0  0  0  0
  5  6  1  0  0  0
  6  7  1  0  0  0
  7  8  2  0  0  0
  8  1  1  0  0  0
  1  2  2  0  0  0
  1  3  1  0  0  0
  3 18  1  0  0  0
 18 19  2  0  0  0
 19 20  1  0  0  0
 20 21  2  0  0  0
 21 22  1  0  0  0
 22 23  2  0  0  0
 23 24  1  0  0  0
 24 26  1  0  0  0
 26 27  1  0  0  0
 27 28  1  0  0  0
 27 29  1  0  0  0
 27 30  1  0  0  0
  8  9  1  0  0  0
  9 10  1  0  0  0
 10 11  1  0  0  0
 11 12  1  0  0  0
 12 13  1  0  0  0
 13 14  1  0  0  0
 13 15  1  0  0  0
 15 16  1  0  0  0
 16  6  2  0  0  0
 23 18  1  0  0  0
 15  9  2  0  0  0
  3  4  1  0  0  0
 24 25  1  0  0  0
 10 17  1  0  0  0
M  END
> <minimizedAffinity>
-10.23221

$$$$
OCNT-2311800


 24 27  0  0  0  0  0  0  0  0999 V2000
   -6.4785   29.0864    5.9765 C   0  0  0  0  0  0  0  0  0  0  0  0
   -7.4824   29.9603    5.7860 N   0  0  0  0  0  0  0  0  0  0  0  0
   -7.4256   30.7774    6.8424 N   0  0  0  0  0  0  0  0  0  0  0  0
   -6.3957   30.5074    7.6864 C   0  0  0  0  0  0  0  0  0  0  0  0
   -5.7458   29.4030    7.1680 C   0  0  0  0  0  0  0  0  0  0  0  0
   -8.1186   31.5149    6.9133 H   0  0  0  0  0  0  0  0  0  0  0  0
   -5.7526   25.9969    3.1021 C   0  0  0  0  0  0  0  0  0  0  0  0
   -6.0601   25.6718    4.4252 C   0  0  0  0  0  0  0  0  0  0  0  0
   -6.3050   26.6739    5.3695 C   0  0  0  0  0  0  0  0  0  0  0  0
   -6.2353   28.0211    5.0038 C   0  0  0  0  0  0  0  0  0  0  0  0
   -5.9398   28.3430    3.6724 C   0  0  0  0  0  0  0  0  0  0  0  0
   -5.6961   27.3387    2.7270 C   0  0  0  0  0  0  0  0  0  0  0  0
   -5.7183   25.1303    0.8900 C   0  0  0  0  0  0  0  0  0  0  0  0
   -5.5352   24.9221    2.2847 O   0  0  0  0  0  0  0  0  0  0  0  0
   -4.5115   28.7527    7.7080 C   0  0  0  0  0  0  0  0  0  0  0  0
   -3.3225   29.1711    6.9560 N   0  0  0  0  0  0  0  0  0  0  0  0
   -2.1295   28.3582    7.2644 C   0  0  0  0  0  0  0  0  0  0  0  0
   -0.8251   29.0725    6.8936 C   0  0  0  0  0  0  0  0  0  0  0  0
   -0.6601   30.2737    7.6542 O   0  0  0  0  0  0  0  0  0  0  0  0
   -1.8826   30.9677    8.0372 C   0  0  0  0  0  0  0  0  0  0  0  0
   -2.1901   30.9232    9.5671 C   0  0  0  0  0  0  0  0  0  0  0  0
   -2.5273   32.4213    9.5043 C   0  0  0  0  0  0  0  0  0  0  0  0
   -1.6834   32.5043    8.2224 C   0  0  0  0  0  0  0  0  0  0  0  0
   -3.0511   30.6201    7.0874 C   0  0  0  0  0  0  0  0  0  0  0  0
 13 14  1  0  0  0
 14  7  1  0  0  0
  7  8  1  0  0  0
  8  9  2  0  0  0
  9 10  1  0  0  0
 10  1  1  0  0  0
  1  2  2  0  0  0
  2  3  1  0  0  0
  3  4  1  0  0  0
  4  5  2  0  0  0
  5 15  1  0  0  0
 15 16  1  0  0  0
 16 17  1  0  0  0
 17 18  1  0  0  0
 18 19  1  0  0  0
 19 20  1  0  0  0
 20 21  1  0  0  0
 21 22  1  0  0  0
 22 23  1  0  0  0
 20 24  1  0  0  0
 10 11  2  0  0  0
 11 12  1  0  0  0
 12  7  2  0  0  0
  5  1  1  0  0  0
 24 16  1  0  0  0
 23 20  1  0  0  0
  3  6  1  0  0  0
M  END
> <minimizedAffinity>
-8.65894

$$$$
OCNT-2311801


 30 33  0  0  0  0  0  0  0  0999 V2000
   -5.2361   26.3640    4.8602 C   0  0  0  0  0  0  0  0  0  0  0  0
   -4.0797   26.2619    5.2614 O   0  0  0  0  0  0  0  0  0  0  0  0
   -6.0958   27.3956    5.1801 N   0  0  0  0  0  0  0  0  0  0  0  0
   -7.0210   27.3378    4.7671 H   0  0  0  0  0  0  0  0  0  0  0  0
   -6.2226   24.0214    4.3503 C   0  0  0  0  0  0  0  0  0  0  0  0
   -6.7033   23.1209    3.3851 C   0  0  0  0  0  0  0  0  0  0  0  0
   -6.7403   23.4541    2.0193 C   0  0  0  0  0  0  0  0  0  0  0  0
   -7.2199   22.5515    1.0547 C   0  0  0  0  0  0  0  0  0  0  0  0
   -7.2492   22.8982   -0.2971 C   0  0  0  0  0  0  0  0  0  0  0  0
   -6.7999   24.1507   -0.7026 C   0  0  0  0  0  0  0  0  0  0  0  0
   -6.3214   25.0578    0.2434 C   0  0  0  0  0  0  0  0  0  0  0  0
   -6.2867   24.7218    1.6067 C   0  0  0  0  0  0  0  0  0  0  0  0
   -5.8105   25.6224    2.5702 C   0  0  0  0  0  0  0  0  0  0  0  0
   -5.7728   25.2938    3.9403 C   0  0  0  0  0  0  0  0  0  0  0  0
   -6.3612   22.3686    6.0852 C   0  0  0  0  0  0  0  0  0  0  0  0
   -6.1746   23.7249    5.6911 O   0  0  0  0  0  0  0  0  0  0  0  0
   -5.8552   28.5098    6.0069 C   0  0  0  0  0  0  0  0  0  0  0  0
   -6.4314   28.6942    7.2634 C   0  0  0  0  0  0  0  0  0  0  0  0
   -6.1399   29.8339    8.0279 C   0  0  0  0  0  0  0  0  0  0  0  0
   -5.2647   30.8027    7.5434 C   0  0  0  0  0  0  0  0  0  0  0  0
   -4.6893   30.6221    6.2851 C   0  0  0  0  0  0  0  0  0  0  0  0
   -4.9806   29.4869    5.5222 C   0  0  0  0  0  0  0  0  0  0  0  0
   -4.8860   31.9509    8.1787 O   0  0  0  0  0  0  0  0  0  0  0  0
   -3.5011   32.1556    8.4627 C   0  0  0  0  0  0  0  0  0  0  0  0
   -3.0102   31.1639    9.5122 C   0  0  0  0  0  0  0  0  0  0  0  0
   -1.9206   30.3496    9.0234 N   0  0  0  0  0  0  0  0  0  0  0  0
   -0.5895   30.6467    9.1008 C   0  0  0  0  0  0  0  0  0  0  0  0
    0.0445   29.5773    8.5120 C   0  0  0  0  0  0  0  0  0  0  0  0
   -0.8678   28.6498    8.0790 N   0  0  0  0  0  0  0  0  0  0  0  0
   -2.0434   29.1459    8.3919 C   0  0  0  0  0  0  0  0  0  0  0  0
 15 16  1  0  0  0
 16  5  1  0  0  0
  5  6  2  0  0  0
  6  7  1  0  0  0
  7  8  2  0  0  0
  8  9  1  0  0  0
  9 10  2  0  0  0
 10 11  1  0  0  0
 11 12  2  0  0  0
 12 13  1  0  0  0
 13 14  2  0  0  0
 14  1  1  0  0  0
  1  2  2  0  0  0
  1  3  1  0  0  0
  3 17  1  0  0  0
 17 18  1  0  0  0
 18 19  2  0  0  0
 19 20  1  0  0  0
 20 23  1  0  0  0
 23 24  1  0  0  0
 24 25  1  0  0  0
 25 26  1  0  0  0
 26 27  1  0  0  0
 27 28  2  0  0  0
 28 29  1  0  0  0
 29 30  2  0  0  0
 20 21  2  0  0  0
 21 22  1  0  0  0
 14  5  1  0  0  0
 22 17  2  0  0  0
 12  7  1  0  0  0
 30 26  1  0  0  0
  3  4  1  0  0  0
M  END
> <minimizedAffinity>
-9.35420

$$$$
OCNT-2311802


 23 26  0  0  0  0  0  0  0  0999 V2000
   -3.6854   25.7011    3.3275 N   0  0  0  0  0  0  0  0  0  0  0  0
   -4.0666   26.4256    2.7297 H   0  0  0  0  0  0  0  0  0  0  0  0
   -5.9241   27.7902    4.7618 C   0  0  0  0  0  0  0  0  0  0  0  0
   -4.6619   27.8402    5.5342 C   0  0  0  0  0  0  0  0  0  0  0  0
   -4.5727   28.6246    6.6168 N   0  0  0  0  0  0  0  0  0  0  0  0
   -3.2773   28.4644    7.0865 O   0  0  0  0  0  0  0  0  0  0  0  0
   -2.6037   27.5869    6.2914 C   0  0  0  0  0  0  0  0  0  0  0  0
   -1.3248   27.2368    6.4875 N   0  0  0  0  0  0  0  0  0  0  0  0
   -0.9169   26.3709    5.5551 C   0  0  0  0  0  0  0  0  0  0  0  0
   -1.6322   25.8569    4.5350 N   0  0  0  0  0  0  0  0  0  0  0  0
   -2.9282   26.2250    4.3762 C   0  0  0  0  0  0  0  0  0  0  0  0
   -3.4497   27.1467    5.2919 C   0  0  0  0  0  0  0  0  0  0  0  0
   -4.6522   24.6513    3.6613 C   0  0  0  0  0  0  0  0  0  0  0  0
   -4.6890   23.5121    2.6117 C   0  0  0  0  0  0  0  0  0  0  0  0
   -5.0791   22.2117    3.3298 C   0  0  0  0  0  0  0  0  0  0  0  0
   -5.4182   21.1491    2.3049 C   0  0  0  0  0  0  0  0  0  0  0  0
   -6.5856   21.5137    1.5687 O   0  0  0  0  0  0  0  0  0  0  0  0
   -6.5140   22.7626    1.0089 C   0  0  0  0  0  0  0  0  0  0  0  0
   -7.4049   22.9996   -0.0401 C   0  0  0  0  0  0  0  0  0  0  0  0
   -7.3972   24.2241   -0.7033 C   0  0  0  0  0  0  0  0  0  0  0  0
   -6.4942   25.2102   -0.3182 C   0  0  0  0  0  0  0  0  0  0  0  0
   -5.6156   24.9795    0.7433 C   0  0  0  0  0  0  0  0  0  0  0  0
   -5.6330   23.7633    1.4453 C   0  0  0  0  0  0  0  0  0  0  0  0
  3  4  1  0  0  0
  4  5  2  0  0  0
  5  6  1  0  0  0
  6  7  1  0  0  0
  7  8  2  0  0  0
  8  9  1  0  0  0
  9 10  2  0  0  0
 10 11  1  0  0  0
 11  1  1  0  0  0
  1 13  1  0  0  0
 13 14  1  0  0  0
 14 15  1  0  0  0
 15 16  1  0  0  0
 16 17  1  0  0  0
 17 18  1  0  0  0
 18 19  2  0  0  0
 19 20  1  0  0  0
 20 21  2  0  0  0
 21 22  1  0  0  0
 22 23  2  0  0  0
 11 12  2  0  0  0
 12  4  1  0  0  0
 12  7  1  0  0  0
 23 14  1  0  0  0
 23 18  1  0  0  0
  1  2  1  0  0  0
M  END
> <minimizedAffinity>
-9.09965

$$$$
OCNT-2311804


 22 24  0  0  0  0  0  0  0  0999 V2000
   -2.8779   25.8018    4.1146 C   0  0  0  0  0  0  0  0  0  0  0  0
   -1.6609   25.9329    3.5555 N   0  0  0  0  0  0  0  0  0  0  0  0
   -0.6684   26.3117    4.3767 C   0  0  0  0  0  0  0  0  0  0  0  0
   -0.8445   26.5465    5.7184 C   0  0  0  0  0  0  0  0  0  0  0  0
   -2.1171   26.3675    6.2196 C   0  0  0  0  0  0  0  0  0  0  0  0
   -3.1382   26.0122    5.4238 N   0  0  0  0  0  0  0  0  0  0  0  0
   -5.3271   27.5744    3.2776 C   0  0  0  0  0  0  0  0  0  0  0  0
   -5.0774   26.1610    2.8921 C   0  0  0  0  0  0  0  0  0  0  0  0
   -5.8827   25.4507    2.1194 N   0  0  0  0  0  0  0  0  0  0  0  0
   -5.3079   24.2178    2.0078 C   0  0  0  0  0  0  0  0  0  0  0  0
   -4.1354   24.1661    2.7152 C   0  0  0  0  0  0  0  0  0  0  0  0
   -3.9756   25.4135    3.2896 N   0  0  0  0  0  0  0  0  0  0  0  0
   -2.3370   26.6398    7.5747 N   0  0  0  0  0  0  0  0  0  0  0  0
   -3.2572   26.3131    7.8737 H   0  0  0  0  0  0  0  0  0  0  0  0
   -2.1673   28.0386    7.9757 C   0  0  0  0  0  0  0  0  0  0  0  0
   -3.5363   28.7550    7.9011 C   0  0  0  0  0  0  0  0  0  0  0  0
   -3.4311   30.2341    7.8380 N   0  0  0  0  0  0  0  0  0  0  0  0
   -3.6626   30.8446    9.1587 C   0  0  0  0  0  0  0  0  0  0  0  0
   -2.3810   31.2442    9.8859 C   0  0  0  0  0  0  0  0  0  0  0  0
   -1.5727   32.2548    9.0740 C   0  0  0  0  0  0  0  0  0  0  0  0
   -1.7953   32.0994    7.5707 C   0  0  0  0  0  0  0  0  0  0  0  0
   -2.1670   30.6624    7.2110 C   0  0  0  0  0  0  0  0  0  0  0  0
  7  8  1  0  0  0
  8  9  2  0  0  0
  9 10  1  0  0  0
 10 11  2  0  0  0
 11 12  1  0  0  0
 12  1  1  0  0  0
  1  2  2  0  0  0
  2  3  1  0  0  0
  3  4  2  0  0  0
  4  5  1  0  0  0
  5 13  1  0  0  0
 13 15  1  0  0  0
 15 16  1  0  0  0
 16 17  1  0  0  0
 17 18  1  0  0  0
 18 19  1  0  0  0
 19 20  1  0  0  0
 20 21  1  0  0  0
 21 22  1  0  0  0
  5  6  2  0  0  0
 12  8  1  0  0  0
  6  1  1  0  0  0
 22 17  1  0  0  0
 13 14  1  0  0  0
M  END
> <minimizedAffinity>
-7.63842

$$$$
OCNT-2311805


 30 32  0  0  0  0  0  0  0  0999 V2000
   -5.4458   31.4713    7.5643 N   0  0  0  0  0  0  0  0  0  0  0  0
   -5.9590   30.4434    8.3204 C   0  0  0  0  0  0  0  0  0  0  0  0
   -6.5338   30.6273    9.3883 O   0  0  0  0  0  0  0  0  0  0  0  0
   -4.8745   31.2407    6.7608 H   0  0  0  0  0  0  0  0  0  0  0  0
   -5.4322   32.8616    8.0172 C   0  0  0  0  0  0  0  0  0  0  0  0
   -4.0506   33.3660    8.4992 C   0  0  0  0  0  0  0  0  0  0  0  0
   -4.0811   33.6743    9.8944 O   0  0  0  0  0  0  0  0  0  0  0  0
   -4.8548   34.2644   10.0267 H   0  0  0  0  0  0  0  0  0  0  0  0
   -1.0521   30.2761    7.7740 C   0  0  0  0  0  0  0  0  0  0  0  0
   -1.4807   30.5813    9.0752 C   0  0  0  0  0  0  0  0  0  0  0  0
   -2.4333   31.5796    9.3133 C   0  0  0  0  0  0  0  0  0  0  0  0
   -2.9884   32.3129    8.2586 C   0  0  0  0  0  0  0  0  0  0  0  0
   -2.5699   32.0187    6.9568 C   0  0  0  0  0  0  0  0  0  0  0  0
   -1.6188   31.0195    6.7212 C   0  0  0  0  0  0  0  0  0  0  0  0
   -0.5935   27.7600    7.4042 C   0  0  0  0  0  0  0  0  0  0  0  0
   -0.0063   29.1875    7.4772 C   0  0  0  0  0  0  0  0  0  0  0  0
    1.0687   29.1832    8.5853 C   0  0  0  0  0  0  0  0  0  0  0  0
    0.6674   29.4735    6.1177 C   0  0  0  0  0  0  0  0  0  0  0  0
   -5.7066   29.0701    7.7282 C   0  0  0  0  0  0  0  0  0  0  0  0
   -6.8668   28.5779    6.8623 C   0  0  0  0  0  0  0  0  0  0  0  0
   -6.5221   28.5595    5.3897 C   0  0  0  0  0  0  0  0  0  0  0  0
   -6.4566   29.7733    4.7022 C   0  0  0  0  0  0  0  0  0  0  0  0
   -6.1443   29.8966    3.3966 N   0  0  0  0  0  0  0  0  0  0  0  0
   -5.8785   28.7531    2.7319 C   0  0  0  0  0  0  0  0  0  0  0  0
   -5.9035   27.4794    3.2998 C   0  0  0  0  0  0  0  0  0  0  0  0
   -5.6097   26.3321    2.5406 C   0  0  0  0  0  0  0  0  0  0  0  0
   -5.6388   25.0675    3.1234 C   0  0  0  0  0  0  0  0  0  0  0  0
   -5.9617   24.9376    4.4680 C   0  0  0  0  0  0  0  0  0  0  0  0
   -6.2553   26.0721    5.2307 C   0  0  0  0  0  0  0  0  0  0  0  0
   -6.2340   27.3707    4.6693 C   0  0  0  0  0  0  0  0  0  0  0  0
 15 16  1  0  0  0
 16 17  1  0  0  0
 16 18  1  0  0  0
 16  9  1  0  0  0
  9 10  1  0  0  0
 10 11  2  0  0  0
 11 12  1  0  0  0
 12  6  1  0  0  0
  6  7  1  0  0  0
  6  5  1  0  0  0
  5  1  1  0  0  0
  1  2  1  0  0  0
  2  3  2  0  0  0
  2 19  1  0  0  0
 19 20  1  0  0  0
 20 21  1  0  0  0
 21 22  1  0  0  0
 22 23  2  0  0  0
 23 24  1  0  0  0
 24 25  2  0  0  0
 25 26  1  0  0  0
 26 27  2  0  0  0
 27 28  1  0  0  0
 28 29  2  0  0  0
 29 30  1  0  0  0
 12 13  2  0  0  0
 13 14  1  0  0  0
 14  9  2  0  0  0
 30 21  2  0  0  0
 30 25  1  0  0  0
  7  8  1  0  0  0
  1  4  1  0  0  0
M  END
> <minimizedAffinity>
-10.48434

$$$$
OCNT-2311808


 37 41  0  0  0  0  0  0  0  0999 V2000
   -5.9931   31.2090    8.4603 S   0  0  0  0  0  0  0  0  0  0  0  0
   -5.3891   32.4145    7.9362 O   0  0  0  0  0  0  0  0  0  0  0  0
   -7.3344   31.2062    9.0032 O   0  0  0  0  0  0  0  0  0  0  0  0
   -6.0036   28.1251    5.0830 C   0  0  0  0  0  0  0  0  0  0  0  0
   -5.1777   29.2514    5.0098 C   0  0  0  0  0  0  0  0  0  0  0  0
   -5.1253   30.1655    6.0655 C   0  0  0  0  0  0  0  0  0  0  0  0
   -5.9246   29.9596    7.1900 C   0  0  0  0  0  0  0  0  0  0  0  0
   -6.7144   28.8125    7.3024 C   0  0  0  0  0  0  0  0  0  0  0  0
   -6.7531   27.9013    6.2460 C   0  0  0  0  0  0  0  0  0  0  0  0
   -4.7675   25.4388    4.8012 O   0  0  0  0  0  0  0  0  0  0  0  0
   -5.5542   25.9206    3.9937 C   0  0  0  0  0  0  0  0  0  0  0  0
   -6.1295   27.1780    4.0490 N   0  0  0  0  0  0  0  0  0  0  0  0
   -6.7443   27.4361    3.2886 H   0  0  0  0  0  0  0  0  0  0  0  0
   -5.9477   25.0878    2.8205 C   0  0  0  0  0  0  0  0  0  0  0  0
   -6.5011   23.8076    2.9752 C   0  0  0  0  0  0  0  0  0  0  0  0
   -6.8417   23.0558    1.8467 C   0  0  0  0  0  0  0  0  0  0  0  0
   -6.6410   23.5906    0.5761 C   0  0  0  0  0  0  0  0  0  0  0  0
   -6.9625   22.8645   -0.5029 F   0  0  0  0  0  0  0  0  0  0  0  0
   -6.1138   24.8673    0.4094 C   0  0  0  0  0  0  0  0  0  0  0  0
   -5.7723   25.6209    1.5344 C   0  0  0  0  0  0  0  0  0  0  0  0
   -4.9850   30.5544    9.6636 N   0  0  0  0  0  0  0  0  0  0  0  0
   -5.3561   29.6734   10.0184 H   0  0  0  0  0  0  0  0  0  0  0  0
   -3.5775   30.6314    9.4489 C   0  0  0  0  0  0  0  0  0  0  0  0
   -2.8567   31.6983    9.9771 C   0  0  0  0  0  0  0  0  0  0  0  0
   -1.5072   31.8425    9.6673 C   0  0  0  0  0  0  0  0  0  0  0  0
   -0.8955   30.9463    8.7923 C   0  0  0  0  0  0  0  0  0  0  0  0
   -1.6217   29.8947    8.2064 C   0  0  0  0  0  0  0  0  0  0  0  0
   -2.9620   29.7223    8.5764 C   0  0  0  0  0  0  0  0  0  0  0  0
   -0.9697   29.0448    7.2099 C   0  0  0  0  0  0  0  0  0  0  0  0
   -1.3629   27.8481    6.8201 N   0  0  0  0  0  0  0  0  0  0  0  0
   -0.4043   27.4645    5.9109 C   0  0  0  0  0  0  0  0  0  0  0  0
    0.5906   28.3415    5.7358 N   0  0  0  0  0  0  0  0  0  0  0  0
    0.2020   29.3402    6.5518 N   0  0  0  0  0  0  0  0  0  0  0  0
    0.7991   30.1598    6.6395 H   0  0  0  0  0  0  0  0  0  0  0  0
   -0.4883   26.1038    5.1629 C   0  0  0  0  0  0  0  0  0  0  0  0
   -1.3488   26.0213    3.9275 C   0  0  0  0  0  0  0  0  0  0  0  0
    0.1413   25.9206    3.8065 C   0  0  0  0  0  0  0  0  0  0  0  0
 10 11  2  0  0  0
 11 12  1  0  0  0
 12  4  1  0  0  0
  4  5  1  0  0  0
  5  6  2  0  0  0
  6  7  1  0  0  0
  7  1  1  0  0  0
  1  2  2  0  0  0
  1  3  2  0  0  0
  1 21  1  0  0  0
 21 23  1  0  0  0
 23 24  2  0  0  0
 24 25  1  0  0  0
 25 26  2  0  0  0
 26 27  1  0  0  0
 27 29  1  0  0  0
 29 30  2  0  0  0
 30 31  1  0  0  0
 31 35  1  0  0  0
 35 36  1  0  0  0
 36 37  1  0  0  0
 31 32  2  0  0  0
 32 33  1  0  0  0
 27 28  2  0  0  0
  7  8  2  0  0  0
  8  9  1  0  0  0
 11 14  1  0  0  0
 14 15  1  0  0  0
 15 16  2  0  0  0
 16 17  1  0  0  0
 17 18  1  0  0  0
 17 19  2  0  0  0
 19 20  1  0  0  0
  9  4  2  0  0  0
 20 14  2  0  0  0
 28 23  1  0  0  0
 33 29  1  0  0  0
 37 35  1  0  0  0
 12 13  1  0  0  0
 21 22  1  0  0  0
 33 34  1  0  0  0
M  END
> <minimizedAffinity>
-10.87668

$$$$
OCNT-2311816


 27 30  0  0  0  0  0  0  0  0999 V2000
   -0.6692   26.8844    6.3726 C   0  0  0  0  0  0  0  0  0  0  0  0
   -4.8659   25.6700    1.9792 C   0  0  0  0  0  0  0  0  0  0  0  0
   -5.8727   26.4469    2.5625 C   0  0  0  0  0  0  0  0  0  0  0  0
   -5.6348   27.1252    3.7632 C   0  0  0  0  0  0  0  0  0  0  0  0
   -4.3837   27.0204    4.3697 C   0  0  0  0  0  0  0  0  0  0  0  0
   -4.0942   27.7053    5.6227 C   0  0  0  0  0  0  0  0  0  0  0  0
   -2.9509   27.6572    6.2288 N   0  0  0  0  0  0  0  0  0  0  0  0
   -1.9365   26.9245    5.6513 N   0  0  0  0  0  0  0  0  0  0  0  0
   -2.0706   26.1859    4.4756 C   0  0  0  0  0  0  0  0  0  0  0  0
   -1.1660   25.5137    3.9815 O   0  0  0  0  0  0  0  0  0  0  0  0
   -3.3785   26.2563    3.8014 C   0  0  0  0  0  0  0  0  0  0  0  0
   -3.6180   25.5760    2.6039 C   0  0  0  0  0  0  0  0  0  0  0  0
   -6.1586   25.1417    0.0516 C   0  0  0  0  0  0  0  0  0  0  0  0
   -4.9736   24.9595    0.8168 O   0  0  0  0  0  0  0  0  0  0  0  0
   -0.2892   28.2930    6.8260 C   0  0  0  0  0  0  0  0  0  0  0  0
    0.4632   29.0269    6.1894 O   0  0  0  0  0  0  0  0  0  0  0  0
   -0.8167   28.6433    8.0545 N   0  0  0  0  0  0  0  0  0  0  0  0
   -1.1153   27.8710    8.6524 H   0  0  0  0  0  0  0  0  0  0  0  0
   -0.3575   29.8335    8.7384 C   0  0  0  0  0  0  0  0  0  0  0  0
   -1.4006   30.9192    8.5194 C   0  0  0  0  0  0  0  0  0  0  0  0
   -1.2214   32.2582    9.2729 C   0  0  0  0  0  0  0  0  0  0  0  0
   -2.6131   32.0879    9.9041 C   0  0  0  0  0  0  0  0  0  0  0  0
   -2.7724   30.7224    9.1959 C   0  0  0  0  0  0  0  0  0  0  0  0
   -3.7552   30.6108    8.0497 C   0  0  0  0  0  0  0  0  0  0  0  0
   -3.1246   31.4455    6.9566 C   0  0  0  0  0  0  0  0  0  0  0  0
   -1.6847   31.2135    7.0852 N   0  0  0  0  0  0  0  0  0  0  0  0
   -1.4196   30.4527    6.4549 H   0  0  0  0  0  0  0  0  0  0  0  0
 13 14  1  0  0  0
 14  2  1  0  0  0
  2  3  1  0  0  0
  3  4  2  0  0  0
  4  5  1  0  0  0
  5  6  1  0  0  0
  6  7  2  0  0  0
  7  8  1  0  0  0
  8  1  1  0  0  0
  1 15  1  0  0  0
 15 16  2  0  0  0
 15 17  1  0  0  0
 17 19  1  0  0  0
 19 20  1  0  0  0
 20 21  1  0  0  0
 21 22  1  0  0  0
 22 23  1  0  0  0
 23 24  1  0  0  0
 24 25  1  0  0  0
 25 26  1  0  0  0
  8  9  1  0  0  0
  9 10  2  0  0  0
  9 11  1  0  0  0
 11 12  1  0  0  0
 12  2  2  0  0  0
 11  5  2  0  0  0
 23 20  1  0  0  0
 26 20  1  0  0  0
 17 18  1  0  0  0
 26 27  1  0  0  0
M  END
> <minimizedAffinity>
-9.21455

$$$$
OCNT-2311822


 29 32  0  0  0  0  0  0  0  0999 V2000
   -1.3604   29.3181    8.1916 N   0  0  0  0  0  0  0  0  0  0  0  0
   -0.3018   29.9062    8.8534 C   0  0  0  0  0  0  0  0  0  0  0  0
    0.7690   29.3721    9.1127 O   0  0  0  0  0  0  0  0  0  0  0  0
   -0.6009   31.2287    9.2093 O   0  0  0  0  0  0  0  0  0  0  0  0
   -1.9035   31.3670    8.7620 C   0  0  0  0  0  0  0  0  0  0  0  0
   -2.6710   32.5025    8.8785 C   0  0  0  0  0  0  0  0  0  0  0  0
   -3.9773   32.4552    8.3721 C   0  0  0  0  0  0  0  0  0  0  0  0
   -4.5099   31.2804    7.7908 C   0  0  0  0  0  0  0  0  0  0  0  0
   -3.6724   30.1587    7.6553 C   0  0  0  0  0  0  0  0  0  0  0  0
   -2.3897   30.2293    8.1576 C   0  0  0  0  0  0  0  0  0  0  0  0
   -5.7883   31.2195    7.2237 N   0  0  0  0  0  0  0  0  0  0  0  0
   -5.8124   31.6286    6.2921 H   0  0  0  0  0  0  0  0  0  0  0  0
   -6.5608   29.9890    7.3114 C   0  0  0  0  0  0  0  0  0  0  0  0
   -6.3356   29.1745    6.0571 C   0  0  0  0  0  0  0  0  0  0  0  0
   -6.2071   29.8009    4.8153 C   0  0  0  0  0  0  0  0  0  0  0  0
   -6.0172   29.0407    3.6572 C   0  0  0  0  0  0  0  0  0  0  0  0
   -5.8881   29.6694    2.4419 O   0  0  0  0  0  0  0  0  0  0  0  0
   -5.9583   27.6284    3.7139 C   0  0  0  0  0  0  0  0  0  0  0  0
   -5.7746   26.6511    2.6766 C   0  0  0  0  0  0  0  0  0  0  0  0
   -5.7814   25.3597    3.1475 C   0  0  0  0  0  0  0  0  0  0  0  0
   -6.0092   25.2996    4.8360 S   0  0  0  0  0  0  0  0  0  0  0  0
   -6.0990   27.0168    4.9616 C   0  0  0  0  0  0  0  0  0  0  0  0
   -6.2905   27.7721    6.1355 C   0  0  0  0  0  0  0  0  0  0  0  0
   -5.9416   30.6294    2.5750 H   0  0  0  0  0  0  0  0  0  0  0  0
   -1.4079   27.9416    7.7593 C   0  0  0  0  0  0  0  0  0  0  0  0
   -0.6438   27.6930    6.4416 C   0  0  0  0  0  0  0  0  0  0  0  0
   -2.4480   26.4127    5.4304 C   0  0  0  0  0  0  0  0  0  0  0  0
   -1.0200   26.4380    5.7557 N   0  0  0  0  0  0  0  0  0  0  0  0
   -0.2348   26.2804    4.5284 C   0  0  0  0  0  0  0  0  0  0  0  0
 27 28  1  0  0  0
 28 29  1  0  0  0
 28 26  1  0  0  0
 26 25  1  0  0  0
 25  1  1  0  0  0
  1  2  1  0  0  0
  2  3  2  0  0  0
  2  4  1  0  0  0
  4  5  1  0  0  0
  5  6  1  0  0  0
  6  7  2  0  0  0
  7  8  1  0  0  0
  8 11  1  0  0  0
 11 13  1  0  0  0
 13 14  1  0  0  0
 14 15  2  0  0  0
 15 16  1  0  0  0
 16 17  1  0  0  0
 16 18  2  0  0  0
 18 19  1  0  0  0
 19 20  2  0  0  0
 20 21  1  0  0  0
 21 22  1  0  0  0
 22 23  2  0  0  0
  8  9  2  0  0  0
  9 10  1  0  0  0
 10  1  1  0  0  0
 10  5  2  0  0  0
 23 14  1  0  0  0
 22 18  1  0  0  0
 11 12  1  0  0  0
 17 24  1  0  0  0
M  END
> <minimizedAffinity>
-9.50584

$$$$
OCNT-2311831


 27 28  0  0  0  0  0  0  0  0999 V2000
   -2.6628   26.8415    5.4369 C   0  0  0  0  0  0  0  0  0  0  0  0
   -1.9881   25.8466    5.6868 O   0  0  0  0  0  0  0  0  0  0  0  0
   -3.2952   27.0227    4.2302 N   0  0  0  0  0  0  0  0  0  0  0  0
   -3.8528   27.8622    4.1061 H   0  0  0  0  0  0  0  0  0  0  0  0
   -2.9855   29.8335    8.5358 C   0  0  0  0  0  0  0  0  0  0  0  0
   -1.7949   29.1531    8.3007 C   0  0  0  0  0  0  0  0  0  0  0  0
   -1.7279   28.1930    7.2846 C   0  0  0  0  0  0  0  0  0  0  0  0
   -2.8413   27.9086    6.4755 C   0  0  0  0  0  0  0  0  0  0  0  0
   -4.0263   28.6331    6.6869 C   0  0  0  0  0  0  0  0  0  0  0  0
   -4.0979   29.5608    7.7350 C   0  0  0  0  0  0  0  0  0  0  0  0
   -2.0908   31.5917    9.8631 C   0  0  0  0  0  0  0  0  0  0  0  0
   -3.1969   30.7713    9.5077 O   0  0  0  0  0  0  0  0  0  0  0  0
   -5.1356   28.3747    5.9198 O   0  0  0  0  0  0  0  0  0  0  0  0
   -5.9356   29.5293    5.6017 C   0  0  0  0  0  0  0  0  0  0  0  0
   -7.2974   29.3037    6.2535 C   0  0  0  0  0  0  0  0  0  0  0  0
   -6.0928   29.6681    4.0888 C   0  0  0  0  0  0  0  0  0  0  0  0
   -3.2326   26.0658    3.1372 C   0  0  0  0  0  0  0  0  0  0  0  0
   -4.5797   25.3129    2.8269 C   0  0  0  0  0  0  0  0  0  0  0  0
   -4.4964   24.8095    1.3593 C   0  0  0  0  0  0  0  0  0  0  0  0
   -5.7461   26.3179    2.9155 C   0  0  0  0  0  0  0  0  0  0  0  0
   -4.7518   24.0939    3.6741 N   0  0  0  0  0  0  0  0  0  0  0  0
   -5.3828   22.9146    3.0406 C   0  0  0  0  0  0  0  0  0  0  0  0
   -6.9251   22.8055    3.1772 C   0  0  0  0  0  0  0  0  0  0  0  0
   -7.3999   22.9843    4.5599 N   0  0  0  0  0  0  0  0  0  0  0  0
   -8.8588   22.9856    4.6172 C   0  0  0  0  0  0  0  0  0  0  0  0
   -6.8482   24.2293    5.1214 C   0  0  0  0  0  0  0  0  0  0  0  0
   -5.3075   24.2524    5.0309 C   0  0  0  0  0  0  0  0  0  0  0  0
 11 12  1  0  0  0
 12  5  1  0  0  0
  5  6  1  0  0  0
  6  7  2  0  0  0
  7  8  1  0  0  0
  8  1  1  0  0  0
  1  2  2  0  0  0
  1  3  1  0  0  0
  3 17  1  0  0  0
 17 18  1  0  0  0
 18 19  1  0  0  0
 18 20  1  0  0  0
 18 21  1  0  0  0
 21 22  1  0  0  0
 22 23  1  0  0  0
 23 24  1  0  0  0
 24 25  1  0  0  0
 24 26  1  0  0  0
 26 27  1  0  0  0
  8  9  2  0  0  0
  9 13  1  0  0  0
 13 14  1  0  0  0
 14 15  1  0  0  0
 14 16  1  0  0  0
  9 10  1  0  0  0
 10  5  2  0  0  0
 27 21  1  0  0  0
  3  4  1  0  0  0
M  END
> <minimizedAffinity>
-7.99311

$$$$
OCNT-2311835


 27 30  0  0  0  0  0  0  0  0999 V2000
   -6.2965   28.5449    5.7545 C   0  0  0  0  0  0  0  0  0  0  0  0
   -6.0976   27.2423    5.2733 C   0  0  0  0  0  0  0  0  0  0  0  0
   -5.9022   26.9959    3.9099 C   0  0  0  0  0  0  0  0  0  0  0  0
   -5.9106   28.0660    3.0159 C   0  0  0  0  0  0  0  0  0  0  0  0
   -6.1152   29.3679    3.4817 C   0  0  0  0  0  0  0  0  0  0  0  0
   -6.3087   29.6064    4.8414 C   0  0  0  0  0  0  0  0  0  0  0  0
   -6.5197   28.8008    7.2269 C   0  0  0  0  0  0  0  0  0  0  0  0
   -5.2284   28.9131    7.8906 N   0  0  0  0  0  0  0  0  0  0  0  0
   -4.5101   28.4049    7.3812 H   0  0  0  0  0  0  0  0  0  0  0  0
   -0.5809   30.7916    9.0395 C   0  0  0  0  0  0  0  0  0  0  0  0
   -1.0221   29.5397    8.6367 C   0  0  0  0  0  0  0  0  0  0  0  0
   -2.3832   29.3223    8.4038 C   0  0  0  0  0  0  0  0  0  0  0  0
   -3.3471   30.3490    8.5596 C   0  0  0  0  0  0  0  0  0  0  0  0
   -2.8737   31.6149    8.9963 C   0  0  0  0  0  0  0  0  0  0  0  0
   -1.5017   31.8208    9.2216 C   0  0  0  0  0  0  0  0  0  0  0  0
   -3.7773   32.6604    9.2166 C   0  0  0  0  0  0  0  0  0  0  0  0
   -5.1409   32.4680    9.0324 C   0  0  0  0  0  0  0  0  0  0  0  0
   -5.6180   31.2331    8.5977 C   0  0  0  0  0  0  0  0  0  0  0  0
   -4.7461   30.1706    8.3079 C   0  0  0  0  0  0  0  0  0  0  0  0
   -5.7140   25.6780    3.5995 O   0  0  0  0  0  0  0  0  0  0  0  0
   -4.7094   25.3320    2.6451 C   0  0  0  0  0  0  0  0  0  0  0  0
   -5.0026   23.9718    2.0209 C   0  0  0  0  0  0  0  0  0  0  0  0
   -5.9902   24.0581    0.9692 N   0  0  0  0  0  0  0  0  0  0  0  0
   -6.8758   23.0821    0.6094 C   0  0  0  0  0  0  0  0  0  0  0  0
   -7.5947   23.6256   -0.4299 C   0  0  0  0  0  0  0  0  0  0  0  0
   -7.1688   24.9003   -0.7010 N   0  0  0  0  0  0  0  0  0  0  0  0
   -6.2078   25.1374    0.1629 C   0  0  0  0  0  0  0  0  0  0  0  0
 10 11  2  0  0  0
 11 12  1  0  0  0
 12 13  2  0  0  0
 13 14  1  0  0  0
 14 15  2  0  0  0
 14 16  1  0  0  0
 16 17  2  0  0  0
 17 18  1  0  0  0
 18 19  2  0  0  0
 19  8  1  0  0  0
  8  7  1  0  0  0
  7  1  1  0  0  0
  1  2  1  0  0  0
  2  3  2  0  0  0
  3 20  1  0  0  0
 20 21  1  0  0  0
 21 22  1  0  0  0
 22 23  1  0  0  0
 23 24  1  0  0  0
 24 25  2  0  0  0
 25 26  1  0  0  0
 26 27  2  0  0  0
  3  4  1  0  0  0
  4  5  2  0  0  0
  5  6  1  0  0  0
 15 10  1  0  0  0
  6  1  2  0  0  0
 19 13  1  0  0  0
 27 23  1  0  0  0
  8  9  1  0  0  0
M  END
> <minimizedAffinity>
-10.01751

$$$$
OCNT-2311840


 27 29  0  0  0  0  0  0  0  0999 V2000
   -1.3216   26.4857    5.9322 C   0  0  0  0  0  0  0  0  0  0  0  0
   -0.8733   25.8093    4.6324 C   0  0  0  0  0  0  0  0  0  0  0  0
   -2.0540   26.0347    3.6953 C   0  0  0  0  0  0  0  0  0  0  0  0
   -3.2158   26.0816    4.5711 N   0  0  0  0  0  0  0  0  0  0  0  0
   -4.5398   26.0888    4.2009 C   0  0  0  0  0  0  0  0  0  0  0  0
   -5.4485   26.1290    5.0283 O   0  0  0  0  0  0  0  0  0  0  0  0
   -2.8142   26.1307    5.9701 C   0  0  0  0  0  0  0  0  0  0  0  0
   -0.8361   28.1622    8.1520 O   0  0  0  0  0  0  0  0  0  0  0  0
   -0.9209   28.6657    7.0358 C   0  0  0  0  0  0  0  0  0  0  0  0
   -1.1026   27.9291    5.8838 N   0  0  0  0  0  0  0  0  0  0  0  0
   -1.3767   28.4284    5.0421 H   0  0  0  0  0  0  0  0  0  0  0  0
   -0.8381   30.1633    6.8115 C   0  0  0  0  0  0  0  0  0  0  0  0
   -1.8227   30.9198    7.6620 C   0  0  0  0  0  0  0  0  0  0  0  0
   -3.0559   31.3411    7.1440 C   0  0  0  0  0  0  0  0  0  0  0  0
   -3.9517   32.0605    7.9424 C   0  0  0  0  0  0  0  0  0  0  0  0
   -3.6212   32.3714    9.2622 C   0  0  0  0  0  0  0  0  0  0  0  0
   -2.3942   31.9654    9.7739 C   0  0  0  0  0  0  0  0  0  0  0  0
   -2.0732   32.2746   11.0377 F   0  0  0  0  0  0  0  0  0  0  0  0
   -1.5022   31.2504    8.9822 C   0  0  0  0  0  0  0  0  0  0  0  0
   -0.3123   30.8824    9.4836 F   0  0  0  0  0  0  0  0  0  0  0  0
   -4.8156   26.0394    2.7141 C   0  0  0  0  0  0  0  0  0  0  0  0
   -4.9988   24.6023    2.2444 C   0  0  0  0  0  0  0  0  0  0  0  0
   -5.9692   24.5127    1.1720 N   0  0  0  0  0  0  0  0  0  0  0  0
   -6.9818   23.6013    1.0707 C   0  0  0  0  0  0  0  0  0  0  0  0
   -7.6332   23.9272   -0.0960 C   0  0  0  0  0  0  0  0  0  0  0  0
   -7.0395   25.0058   -0.6996 N   0  0  0  0  0  0  0  0  0  0  0  0
   -6.0331   25.3300    0.0808 C   0  0  0  0  0  0  0  0  0  0  0  0
  8  9  2  0  0  0
  9 12  1  0  0  0
 12 13  1  0  0  0
 13 14  2  0  0  0
 14 15  1  0  0  0
 15 16  2  0  0  0
 16 17  1  0  0  0
 17 18  1  0  0  0
 17 19  2  0  0  0
 19 20  1  0  0  0
  9 10  1  0  0  0
 10  1  1  0  0  0
  1  2  1  0  0  0
  2  3  1  0  0  0
  3  4  1  0  0  0
  4  5  1  0  0  0
  5  6  2  0  0  0
  5 21  1  0  0  0
 21 22  1  0  0  0
 22 23  1  0  0  0
 23 24  1  0  0  0
 24 25  2  0  0  0
 25 26  1  0  0  0
 26 27  2  0  0  0
  4  7  1  0  0  0
 19 13  1  0  0  0
  7  1  1  0  0  0
 27 23  1  0  0  0
 10 11  1  0  0  0
M  END
> <minimizedAffinity>
-9.09169

$$$$
OCNT-2311844


 27 29  0  0  0  0  0  0  0  0999 V2000
   -5.0305   27.3591    5.6314 N   0  0  0  0  0  0  0  0  0  0  0  0
   -5.2562   26.5408    6.2004 H   0  0  0  0  0  0  0  0  0  0  0  0
   -4.9204   27.0084    3.9973 S   0  0  0  0  0  0  0  0  0  0  0  0
   -5.6180   28.0455    3.2714 O   0  0  0  0  0  0  0  0  0  0  0  0
   -3.5372   26.6853    3.7316 O   0  0  0  0  0  0  0  0  0  0  0  0
   -5.8484   25.5030    3.8806 C   0  0  0  0  0  0  0  0  0  0  0  0
   -6.4068   24.9474    5.0494 C   0  0  0  0  0  0  0  0  0  0  0  0
   -7.1213   23.7485    4.9964 C   0  0  0  0  0  0  0  0  0  0  0  0
   -7.2934   23.0799    3.7853 C   0  0  0  0  0  0  0  0  0  0  0  0
   -7.9753   21.9289    3.7440 F   0  0  0  0  0  0  0  0  0  0  0  0
   -6.7367   23.6478    2.6418 C   0  0  0  0  0  0  0  0  0  0  0  0
   -6.0204   24.8425    2.6462 C   0  0  0  0  0  0  0  0  0  0  0  0
   -5.6439   25.0618    1.2909 C   0  0  0  0  0  0  0  0  0  0  0  0
   -6.1408   24.0028    0.5675 C   0  0  0  0  0  0  0  0  0  0  0  0
   -6.8021   23.1393    1.3793 O   0  0  0  0  0  0  0  0  0  0  0  0
   -4.0337   28.2698    6.2294 C   0  0  0  0  0  0  0  0  0  0  0  0
   -4.1228   31.8630    9.2206 C   0  0  0  0  0  0  0  0  0  0  0  0
   -3.4464   30.5592    8.7765 C   0  0  0  0  0  0  0  0  0  0  0  0
   -2.3626   30.8052    7.7040 C   0  0  0  0  0  0  0  0  0  0  0  0
   -2.8318   31.0711    6.3819 O   0  0  0  0  0  0  0  0  0  0  0  0
   -4.2121   30.7788    6.1665 C   0  0  0  0  0  0  0  0  0  0  0  0
   -4.7378   29.5030    6.8958 C   0  0  0  0  0  0  0  0  0  0  0  0
   -4.3820   29.5072    8.3510 N   0  0  0  0  0  0  0  0  0  0  0  0
   -5.3602   29.1042    9.3439 C   0  0  0  0  0  0  0  0  0  0  0  0
   -6.2651   29.3983    6.5870 C   0  0  0  0  0  0  0  0  0  0  0  0
   -6.6204   29.9874    5.3373 O   0  0  0  0  0  0  0  0  0  0  0  0
   -6.1834   30.8529    5.2803 H   0  0  0  0  0  0  0  0  0  0  0  0
 17 18  1  0  0  0
 18 19  1  0  0  0
 19 20  1  0  0  0
 20 21  1  0  0  0
 21 22  1  0  0  0
 22 25  1  0  0  0
 25 26  1  0  0  0
 22 16  1  0  0  0
 16  1  1  0  0  0
  1  3  1  0  0  0
  3  4  2  0  0  0
  3  5  2  0  0  0
  3  6  1  0  0  0
  6  7  1  0  0  0
  7  8  2  0  0  0
  8  9  1  0  0  0
  9 10  1  0  0  0
  9 11  2  0  0  0
 11 12  1  0  0  0
 12 13  1  0  0  0
 13 14  2  0  0  0
 14 15  1  0  0  0
 22 23  1  0  0  0
 23 24  1  0  0  0
 23 18  1  0  0  0
 12  6  2  0  0  0
 15 11  1  0  0  0
 26 27  1  0  0  0
  1  2  1  0  0  0
M  END
> <minimizedAffinity>
-8.13062

$$$$
OCNT-2311856


 27 29  0  0  0  0  0  0  0  0999 V2000
   -2.5568   31.2953    7.4525 C   0  0  0  0  0  0  0  0  0  0  0  0
   -2.7023   31.8423    8.7209 C   0  0  0  0  0  0  0  0  0  0  0  0
   -1.6479   31.4055    9.4855 N   0  0  0  0  0  0  0  0  0  0  0  0
   -0.8168   30.5975    8.7491 C   0  0  0  0  0  0  0  0  0  0  0  0
    0.3653   29.9451    9.1191 C   0  0  0  0  0  0  0  0  0  0  0  0
    1.0108   29.1742    8.1482 C   0  0  0  0  0  0  0  0  0  0  0  0
    0.4922   29.0618    6.8608 C   0  0  0  0  0  0  0  0  0  0  0  0
   -0.6911   29.7213    6.5089 C   0  0  0  0  0  0  0  0  0  0  0  0
   -1.3615   30.5059    7.4696 C   0  0  0  0  0  0  0  0  0  0  0  0
   -1.4992   31.6459   10.4576 H   0  0  0  0  0  0  0  0  0  0  0  0
   -3.7290   32.7426    9.2976 C   0  0  0  0  0  0  0  0  0  0  0  0
   -4.9359   32.1238    9.3917 F   0  0  0  0  0  0  0  0  0  0  0  0
   -3.4021   33.1475   10.5496 F   0  0  0  0  0  0  0  0  0  0  0  0
   -3.9203   33.8580    8.5516 F   0  0  0  0  0  0  0  0  0  0  0  0
   -3.4745   31.4915    6.2792 C   0  0  0  0  0  0  0  0  0  0  0  0
   -4.6101   30.4566    6.2551 C   0  0  0  0  0  0  0  0  0  0  0  0
   -5.2152   30.3025    4.9223 N   0  0  0  0  0  0  0  0  0  0  0  0
   -5.4856   31.2296    4.5947 H   0  0  0  0  0  0  0  0  0  0  0  0
   -6.4351   29.4873    4.9353 C   0  0  0  0  0  0  0  0  0  0  0  0
   -5.6427   24.5272    4.8080 C   0  0  0  0  0  0  0  0  0  0  0  0
   -5.8114   25.8974    4.3737 N   0  0  0  0  0  0  0  0  0  0  0  0
   -6.1361   26.9443    5.1976 C   0  0  0  0  0  0  0  0  0  0  0  0
   -6.1583   28.1057    4.4451 C   0  0  0  0  0  0  0  0  0  0  0  0
   -5.8695   27.7167    3.1035 C   0  0  0  0  0  0  0  0  0  0  0  0
   -5.6578   26.3530    3.0879 C   0  0  0  0  0  0  0  0  0  0  0  0
   -5.3295   25.5442    1.9632 C   0  0  0  0  0  0  0  0  0  0  0  0
   -5.0418   24.9059    1.0382 N   0  0  0  0  0  0  0  0  0  0  0  0
 20 21  1  0  0  0
 21 22  1  0  0  0
 22 23  2  0  0  0
 23 19  1  0  0  0
 19 17  1  0  0  0
 17 16  1  0  0  0
 16 15  1  0  0  0
 15  1  1  0  0  0
  1  2  2  0  0  0
  2 11  1  0  0  0
 11 12  1  0  0  0
 11 13  1  0  0  0
 11 14  1  0  0  0
  2  3  1  0  0  0
  3  4  1  0  0  0
  4  5  2  0  0  0
  5  6  1  0  0  0
  6  7  2  0  0  0
  7  8  1  0  0  0
  8  9  2  0  0  0
 23 24  1  0  0  0
 24 25  2  0  0  0
 25 26  1  0  0  0
 26 27  3  0  0  0
 25 21  1  0  0  0
  9  1  1  0  0  0
  9  4  1  0  0  0
 17 18  1  0  0  0
  3 10  1  0  0  0
M  END
> <minimizedAffinity>
-9.24584

$$$$
OCNT-2311864


 26 28  0  0  0  0  0  0  0  0999 V2000
   -4.1332   28.2206    5.9928 C   0  0  0  0  0  0  0  0  0  0  0  0
   -3.1196   28.8732    6.7098 C   0  0  0  0  0  0  0  0  0  0  0  0
   -1.8137   28.3802    6.6676 C   0  0  0  0  0  0  0  0  0  0  0  0
   -1.5102   27.2339    5.9348 C   0  0  0  0  0  0  0  0  0  0  0  0
   -2.5234   26.5857    5.2244 C   0  0  0  0  0  0  0  0  0  0  0  0
   -3.8464   27.0650    5.2354 C   0  0  0  0  0  0  0  0  0  0  0  0
   -4.8634   26.4184    4.5268 N   0  0  0  0  0  0  0  0  0  0  0  0
   -4.9745   26.7608    3.1006 C   0  0  0  0  0  0  0  0  0  0  0  0
   -5.8034   25.6167    2.5232 C   0  0  0  0  0  0  0  0  0  0  0  0
   -5.2583   24.4146    3.2836 C   0  0  0  0  0  0  0  0  0  0  0  0
   -4.0883   23.6546    2.5829 C   0  0  0  0  0  0  0  0  0  0  0  0
   -4.6991   22.3470    3.1245 C   0  0  0  0  0  0  0  0  0  0  0  0
   -6.0526   23.0811    3.1958 C   0  0  0  0  0  0  0  0  0  0  0  0
   -4.9317   24.9507    4.6871 C   0  0  0  0  0  0  0  0  0  0  0  0
   -0.5456   29.2115    7.5887 S   0  0  0  0  0  0  0  0  0  0  0  0
   -0.5182   28.6291    8.9095 O   0  0  0  0  0  0  0  0  0  0  0  0
    0.6307   29.3161    6.7588 O   0  0  0  0  0  0  0  0  0  0  0  0
   -1.2104   30.7426    7.7585 N   0  0  0  0  0  0  0  0  0  0  0  0
   -2.1128   30.8355    7.2852 H   0  0  0  0  0  0  0  0  0  0  0  0
   -1.0555   31.4356    9.0677 C   0  0  0  0  0  0  0  0  0  0  0  0
   -2.3815   31.7328    9.7766 C   0  0  0  0  0  0  0  0  0  0  0  0
   -2.1542   32.0668   11.0702 F   0  0  0  0  0  0  0  0  0  0  0  0
   -3.1732   30.6359    9.7761 F   0  0  0  0  0  0  0  0  0  0  0  0
   -3.0708   32.7387    9.2092 F   0  0  0  0  0  0  0  0  0  0  0  0
   -6.5599   29.1407    6.1131 N   0  0  0  0  0  0  0  0  0  0  0  0
   -5.4643   28.7598    6.0469 C   0  0  0  0  0  0  0  0  0  0  0  0
 25 26  3  0  0  0
 26  1  1  0  0  0
  1  2  1  0  0  0
  2  3  2  0  0  0
  3 15  1  0  0  0
 15 16  2  0  0  0
 15 17  2  0  0  0
 15 18  1  0  0  0
 18 20  1  0  0  0
 20 21  1  0  0  0
 21 22  1  0  0  0
 21 23  1  0  0  0
 21 24  1  0  0  0
  3  4  1  0  0  0
  4  5  2  0  0  0
  5  6  1  0  0  0
  6  7  1  0  0  0
  7  8  1  0  0  0
  8  9  1  0  0  0
  9 10  1  0  0  0
 10 11  1  0  0  0
 11 12  1  0  0  0
 12 13  1  0  0  0
 10 14  1  0  0  0
  6  1  2  0  0  0
 14  7  1  0  0  0
 13 10  1  0  0  0
 18 19  1  0  0  0
M  END
> <minimizedAffinity>
-8.27620

$$$$
OCNT-2311870


 28 30  0  0  0  0  0  0  0  0999 V2000
   -4.9100   29.9673    6.7810 N   0  0  0  0  0  0  0  0  0  0  0  0
   -4.0740   30.0137    6.2005 H   0  0  0  0  0  0  0  0  0  0  0  0
   -1.0649   30.0990    8.8728 C   0  0  0  0  0  0  0  0  0  0  0  0
   -0.7341   31.4341    9.0878 C   0  0  0  0  0  0  0  0  0  0  0  0
   -1.7218   32.4208    9.0160 C   0  0  0  0  0  0  0  0  0  0  0  0
   -3.0528   32.0894    8.7234 C   0  0  0  0  0  0  0  0  0  0  0  0
   -4.0849   33.1891    8.6839 C   0  0  0  0  0  0  0  0  0  0  0  0
   -5.3832   32.7719    7.9989 C   0  0  0  0  0  0  0  0  0  0  0  0
   -5.8423   31.4132    8.5161 C   0  0  0  0  0  0  0  0  0  0  0  0
   -4.8160   30.3133    8.1997 C   0  0  0  0  0  0  0  0  0  0  0  0
   -3.3992   30.7403    8.5309 C   0  0  0  0  0  0  0  0  0  0  0  0
   -2.3923   29.7608    8.5980 C   0  0  0  0  0  0  0  0  0  0  0  0
    0.9941   29.1677    8.1362 C   0  0  0  0  0  0  0  0  0  0  0  0
   -0.1985   29.0418    8.9004 O   0  0  0  0  0  0  0  0  0  0  0  0
   -6.1975   29.1119    6.1778 S   0  0  0  0  0  0  0  0  0  0  0  0
   -6.6979   28.2645    7.2391 O   0  0  0  0  0  0  0  0  0  0  0  0
   -7.0684   30.0299    5.4770 O   0  0  0  0  0  0  0  0  0  0  0  0
   -5.4427   28.0402    4.9886 C   0  0  0  0  0  0  0  0  0  0  0  0
   -6.0997   27.8031    3.7770 C   0  0  0  0  0  0  0  0  0  0  0  0
   -5.5139   26.9550    2.8463 C   0  0  0  0  0  0  0  0  0  0  0  0
   -6.1326   26.7294    1.6809 F   0  0  0  0  0  0  0  0  0  0  0  0
   -4.2919   26.3424    3.1002 C   0  0  0  0  0  0  0  0  0  0  0  0
   -3.6403   26.5758    4.3118 C   0  0  0  0  0  0  0  0  0  0  0  0
   -4.2247   27.4091    5.2707 C   0  0  0  0  0  0  0  0  0  0  0  0
   -3.5314   27.6849    6.4164 O   0  0  0  0  0  0  0  0  0  0  0  0
   -2.2706   27.0162    6.4384 C   0  0  0  0  0  0  0  0  0  0  0  0
   -1.2974   27.9145    6.1382 F   0  0  0  0  0  0  0  0  0  0  0  0
   -2.0473   26.6239    7.7175 F   0  0  0  0  0  0  0  0  0  0  0  0
 13 14  1  0  0  0
 14  3  1  0  0  0
  3  4  1  0  0  0
  4  5  2  0  0  0
  5  6  1  0  0  0
  6  7  1  0  0  0
  7  8  1  0  0  0
  8  9  1  0  0  0
  9 10  1  0  0  0
 10  1  1  0  0  0
  1 15  1  0  0  0
 15 16  2  0  0  0
 15 17  2  0  0  0
 15 18  1  0  0  0
 18 19  1  0  0  0
 19 20  2  0  0  0
 20 21  1  0  0  0
 20 22  1  0  0  0
 22 23  2  0  0  0
 23 24  1  0  0  0
 24 25  1  0  0  0
 25 26  1  0  0  0
 26 27  1  0  0  0
 26 28  1  0  0  0
 10 11  1  0  0  0
 11 12  1  0  0  0
 12  3  2  0  0  0
 11  6  2  0  0  0
 24 18  2  0  0  0
  1  2  1  0  0  0
M  END
> <minimizedAffinity>
-9.23580

$$$$
OCNT-2311871


 28 30  0  0  0  0  0  0  0  0999 V2000
   -3.4797   25.6157    4.9056 C   0  0  0  0  0  0  0  0  0  0  0  0
   -4.8173   26.2325    4.4039 C   0  0  0  0  0  0  0  0  0  0  0  0
   -5.2745   27.3589    5.3832 C   0  0  0  0  0  0  0  0  0  0  0  0
   -6.3232   28.1641    4.6189 C   0  0  0  0  0  0  0  0  0  0  0  0
   -5.9575   27.9954    3.1480 C   0  0  0  0  0  0  0  0  0  0  0  0
   -4.7018   27.1202    3.1353 C   0  0  0  0  0  0  0  0  0  0  0  0
   -8.7722   21.8520    3.9370 C   0  0  0  0  0  0  0  0  0  0  0  0
   -7.7395   22.9316    4.0536 C   0  0  0  0  0  0  0  0  0  0  0  0
   -7.6533   23.7117    5.1981 C   0  0  0  0  0  0  0  0  0  0  0  0
   -6.7139   24.7448    5.2821 C   0  0  0  0  0  0  0  0  0  0  0  0
   -5.8316   25.0640    4.2245 C   0  0  0  0  0  0  0  0  0  0  0  0
   -5.9019   24.2391    3.0694 C   0  0  0  0  0  0  0  0  0  0  0  0
   -5.0380   24.3734    1.8413 C   0  0  0  0  0  0  0  0  0  0  0  0
   -6.8731   23.2113    2.9971 C   0  0  0  0  0  0  0  0  0  0  0  0
   -2.8123   26.3626    5.9615 N   0  0  0  0  0  0  0  0  0  0  0  0
   -1.4655   26.6666    5.9212 C   0  0  0  0  0  0  0  0  0  0  0  0
   -0.7360   26.3154    4.9977 O   0  0  0  0  0  0  0  0  0  0  0  0
   -3.3710   26.6829    6.7372 H   0  0  0  0  0  0  0  0  0  0  0  0
   -0.9323   27.4733    7.1186 C   0  0  0  0  0  0  0  0  0  0  0  0
   -1.9842   27.6472    8.1697 N   0  0  0  0  0  0  0  0  0  0  0  0
   -2.3651   29.0656    8.1779 C   0  0  0  0  0  0  0  0  0  0  0  0
   -1.0604   29.7669    7.8286 C   0  0  0  0  0  0  0  0  0  0  0  0
   -0.1649   29.7398    8.9536 O   0  0  0  0  0  0  0  0  0  0  0  0
   -0.4911   28.8873    6.7131 C   0  0  0  0  0  0  0  0  0  0  0  0
    0.9257   29.0301    6.6502 O   0  0  0  0  0  0  0  0  0  0  0  0
   -2.7752   27.0240    8.0064 H   0  0  0  0  0  0  0  0  0  0  0  0
   -0.3276   28.8858    9.4047 H   0  0  0  0  0  0  0  0  0  0  0  0
    1.2069   29.3220    7.5425 H   0  0  0  0  0  0  0  0  0  0  0  0
  7  8  1  0  0  0
  8  9  1  0  0  0
  9 10  2  0  0  0
 10 11  1  0  0  0
 11  2  1  0  0  0
  2  1  1  0  0  0
  1 15  1  0  0  0
 15 16  1  0  0  0
 16 17  2  0  0  0
 16 19  1  0  0  0
 19 20  1  0  0  0
 20 21  1  0  0  0
 21 22  1  0  0  0
 22 23  1  0  0  0
 22 24  1  0  0  0
 24 25  1  0  0  0
  2  3  1  0  0  0
  3  4  1  0  0  0
  4  5  1  0  0  0
  5  6  1  0  0  0
 11 12  2  0  0  0
 12 13  1  0  0  0
 12 14  1  0  0  0
 14  8  2  0  0  0
  6  2  1  0  0  0
 24 19  1  0  0  0
 15 18  1  0  0  0
 20 26  1  0  0  0
 23 27  1  0  0  0
 25 28  1  0  0  0
M  END
> <minimizedAffinity>
-9.25490

$$$$
OCNT-2311875


 25 27  0  0  0  0  0  0  0  0999 V2000
   -3.0092   29.9951    7.6346 C   0  0  0  0  0  0  0  0  0  0  0  0
   -3.0619   29.4988    8.7564 O   0  0  0  0  0  0  0  0  0  0  0  0
   -3.2497   29.2614    6.4957 N   0  0  0  0  0  0  0  0  0  0  0  0
   -3.0080   29.6388    5.5911 H   0  0  0  0  0  0  0  0  0  0  0  0
   -5.0046   34.1739    8.2254 C   0  0  0  0  0  0  0  0  0  0  0  0
   -4.5758   32.7034    8.2753 C   0  0  0  0  0  0  0  0  0  0  0  0
   -5.8024   31.8305    8.5828 C   0  0  0  0  0  0  0  0  0  0  0  0
   -3.9005   32.2807    6.9561 C   0  0  0  0  0  0  0  0  0  0  0  0
   -2.6704   31.4757    7.3863 C   0  0  0  0  0  0  0  0  0  0  0  0
   -1.5290   31.5610    6.3662 C   0  0  0  0  0  0  0  0  0  0  0  0
   -2.2911   32.1838    8.6861 C   0  0  0  0  0  0  0  0  0  0  0  0
   -3.5625   32.5385    9.3392 N   0  0  0  0  0  0  0  0  0  0  0  0
   -3.8224   31.7467    9.9357 H   0  0  0  0  0  0  0  0  0  0  0  0
   -3.5048   27.8371    6.5436 C   0  0  0  0  0  0  0  0  0  0  0  0
   -2.5122   27.0951    5.6787 C   0  0  0  0  0  0  0  0  0  0  0  0
   -1.1420   27.2402    5.9827 C   0  0  0  0  0  0  0  0  0  0  0  0
   -0.1698   26.5617    5.2552 C   0  0  0  0  0  0  0  0  0  0  0  0
   -0.5535   25.7304    4.2120 C   0  0  0  0  0  0  0  0  0  0  0  0
   -1.9079   25.5770    3.9013 C   0  0  0  0  0  0  0  0  0  0  0  0
   -2.9122   26.2431    4.6262 C   0  0  0  0  0  0  0  0  0  0  0  0
   -4.2641   26.1194    4.3013 N   0  0  0  0  0  0  0  0  0  0  0  0
   -4.9040   24.7991    4.3165 C   0  0  0  0  0  0  0  0  0  0  0  0
   -6.1442   25.0063    3.4547 C   0  0  0  0  0  0  0  0  0  0  0  0
   -5.6147   25.9027    2.3477 C   0  0  0  0  0  0  0  0  0  0  0  0
   -4.6612   26.8478    3.0791 C   0  0  0  0  0  0  0  0  0  0  0  0
  5  6  1  0  0  0
  6  7  1  0  0  0
  6  8  1  0  0  0
  8  9  1  0  0  0
  9 10  1  0  0  0
  9  1  1  0  0  0
  1  2  2  0  0  0
  1  3  1  0  0  0
  3 14  1  0  0  0
 14 15  1  0  0  0
 15 16  2  0  0  0
 16 17  1  0  0  0
 17 18  2  0  0  0
 18 19  1  0  0  0
 19 20  2  0  0  0
 20 21  1  0  0  0
 21 22  1  0  0  0
 22 23  1  0  0  0
 23 24  1  0  0  0
 24 25  1  0  0  0
  9 11  1  0  0  0
 11 12  1  0  0  0
 12  6  1  0  0  0
 20 15  1  0  0  0
 25 21  1  0  0  0
  3  4  1  0  0  0
 12 13  1  0  0  0
M  END
> <minimizedAffinity>
-8.52136

$$$$
OCNT-2311890


 24 26  0  0  0  0  0  0  0  0999 V2000
   -3.9839   25.3519    3.3248 C   0  0  0  0  0  0  0  0  0  0  0  0
   -2.6864   25.1773    3.5113 N   0  0  0  0  0  0  0  0  0  0  0  0
   -2.3160   26.0451    4.5047 C   0  0  0  0  0  0  0  0  0  0  0  0
   -1.0524   26.2775    5.0687 C   0  0  0  0  0  0  0  0  0  0  0  0
   -0.9349   27.2272    6.0919 C   0  0  0  0  0  0  0  0  0  0  0  0
   -2.0666   27.9157    6.5460 C   0  0  0  0  0  0  0  0  0  0  0  0
   -3.3377   27.7126    5.9866 C   0  0  0  0  0  0  0  0  0  0  0  0
   -3.4117   26.7620    4.9658 C   0  0  0  0  0  0  0  0  0  0  0  0
   -4.4541   26.3069    4.1998 N   0  0  0  0  0  0  0  0  0  0  0  0
   -5.4122   26.6106    4.2767 H   0  0  0  0  0  0  0  0  0  0  0  0
   -6.9233   25.5146   -0.7017 C   0  0  0  0  0  0  0  0  0  0  0  0
   -6.2569   24.7117    0.3789 C   0  0  0  0  0  0  0  0  0  0  0  0
   -5.4538   25.3506    1.3346 C   0  0  0  0  0  0  0  0  0  0  0  0
   -4.8178   24.6303    2.3553 C   0  0  0  0  0  0  0  0  0  0  0  0
   -5.0125   23.2414    2.4118 C   0  0  0  0  0  0  0  0  0  0  0  0
   -5.8138   22.5726    1.4674 C   0  0  0  0  0  0  0  0  0  0  0  0
   -5.9885   21.0845    1.5786 C   0  0  0  0  0  0  0  0  0  0  0  0
   -6.4292   23.3244    0.4569 C   0  0  0  0  0  0  0  0  0  0  0  0
   -7.2248   22.7441   -0.4934 O   0  0  0  0  0  0  0  0  0  0  0  0
   -7.3156   21.7968   -0.3135 H   0  0  0  0  0  0  0  0  0  0  0  0
   -1.8775   29.1148    7.8497 S   0  0  0  0  0  0  0  0  0  0  0  0
   -1.4716   30.6042    6.9762 C   0  0  0  0  0  0  0  0  0  0  0  0
   -0.7206   28.7287    8.6359 O   0  0  0  0  0  0  0  0  0  0  0  0
   -3.1761   29.2887    8.4710 O   0  0  0  0  0  0  0  0  0  0  0  0
 11 12  1  0  0  0
 12 13  1  0  0  0
 13 14  2  0  0  0
 14  1  1  0  0  0
  1  2  2  0  0  0
  2  3  1  0  0  0
  3  4  2  0  0  0
  4  5  1  0  0  0
  5  6  2  0  0  0
  6 21  1  0  0  0
 21 22  1  0  0  0
 21 23  2  0  0  0
 21 24  2  0  0  0
  6  7  1  0  0  0
  7  8  2  0  0  0
  8  9  1  0  0  0
 14 15  1  0  0  0
 15 16  2  0  0  0
 16 17  1  0  0  0
 16 18  1  0  0  0
 18 19  1  0  0  0
 18 12  2  0  0  0
  9  1  1  0  0  0
  8  3  1  0  0  0
  9 10  1  0  0  0
 19 20  1  0  0  0
M  END
> <minimizedAffinity>
-9.68046

$$$$
OCNT-2311899


 26 29  0  0  0  0  0  0  0  0999 V2000
   -3.6724   25.9365    3.1017 C   0  0  0  0  0  0  0  0  0  0  0  0
   -4.3471   27.1759    3.7056 C   0  0  0  0  0  0  0  0  0  0  0  0
   -4.1175   27.3537    5.2023 C   0  0  0  0  0  0  0  0  0  0  0  0
   -2.7098   27.2055    5.5752 N   0  0  0  0  0  0  0  0  0  0  0  0
   -2.1240   27.8502    6.6642 C   0  0  0  0  0  0  0  0  0  0  0  0
   -0.9806   27.6144    7.0537 O   0  0  0  0  0  0  0  0  0  0  0  0
   -2.0351   26.0069    5.0828 C   0  0  0  0  0  0  0  0  0  0  0  0
   -2.2226   25.7970    3.5854 C   0  0  0  0  0  0  0  0  0  0  0  0
   -2.8899   28.9143    7.3419 C   0  0  0  0  0  0  0  0  0  0  0  0
   -3.8579   28.5491    8.1971 C   0  0  0  0  0  0  0  0  0  0  0  0
   -4.6747   29.4134    8.8889 N   0  0  0  0  0  0  0  0  0  0  0  0
   -4.4884   30.6631    8.6313 C   0  0  0  0  0  0  0  0  0  0  0  0
   -5.3958   31.9792    9.3554 S   0  0  0  0  0  0  0  0  0  0  0  0
   -4.4751   33.1484    8.4486 C   0  0  0  0  0  0  0  0  0  0  0  0
   -3.5589   32.5581    7.6723 C   0  0  0  0  0  0  0  0  0  0  0  0
   -3.5530   31.1818    7.7610 N   0  0  0  0  0  0  0  0  0  0  0  0
   -2.6889   30.3559    7.0729 C   0  0  0  0  0  0  0  0  0  0  0  0
   -1.8045   30.7516    6.3173 O   0  0  0  0  0  0  0  0  0  0  0  0
   -5.9639   22.3403    3.4064 C   0  0  0  0  0  0  0  0  0  0  0  0
   -4.6687   22.2640    2.9304 C   0  0  0  0  0  0  0  0  0  0  0  0
   -3.9294   23.4406    2.8350 C   0  0  0  0  0  0  0  0  0  0  0  0
   -4.4945   24.6660    3.2155 C   0  0  0  0  0  0  0  0  0  0  0  0
   -5.8060   24.6205    3.6803 C   0  0  0  0  0  0  0  0  0  0  0  0
   -6.5497   23.4936    3.7829 N   0  0  0  0  0  0  0  0  0  0  0  0
   -8.0012   21.2613    3.0186 C   0  0  0  0  0  0  0  0  0  0  0  0
   -6.6600   21.1507    3.4833 O   0  0  0  0  0  0  0  0  0  0  0  0
 25 26  1  0  0  0
 26 19  1  0  0  0
 19 20  2  0  0  0
 20 21  1  0  0  0
 21 22  2  0  0  0
 22  1  1  0  0  0
  1  2  1  0  0  0
  2  3  1  0  0  0
  3  4  1  0  0  0
  4  5  1  0  0  0
  5  6  2  0  0  0
  5  9  1  0  0  0
  9 10  2  0  0  0
 10 11  1  0  0  0
 11 12  2  0  0  0
 12 13  1  0  0  0
 13 14  1  0  0  0
 14 15  2  0  0  0
 15 16  1  0  0  0
 16 17  1  0  0  0
 17 18  2  0  0  0
  4  7  1  0  0  0
  7  8  1  0  0  0
 22 23  1  0  0  0
 23 24  2  0  0  0
 24 19  1  0  0  0
  8  1  1  0  0  0
 17  9  1  0  0  0
 16 12  1  0  0  0
M  END
> <minimizedAffinity>
-8.13341

$$$$
OCNT-2311901


 27 29  0  0  0  0  0  0  0  0999 V2000
   -5.3224   28.2396    6.3601 N   0  0  0  0  0  0  0  0  0  0  0  0
   -5.6504   28.4353    5.0272 C   0  0  0  0  0  0  0  0  0  0  0  0
   -5.8692   29.5183    4.5024 O   0  0  0  0  0  0  0  0  0  0  0  0
   -5.6203   27.3397    6.7131 H   0  0  0  0  0  0  0  0  0  0  0  0
   -4.0664   29.8523    7.8372 C   0  0  0  0  0  0  0  0  0  0  0  0
   -4.1879   30.9488    8.7174 C   0  0  0  0  0  0  0  0  0  0  0  0
   -5.4313   31.4293    9.1289 C   0  0  0  0  0  0  0  0  0  0  0  0
   -6.5884   30.8119    8.6775 C   0  0  0  0  0  0  0  0  0  0  0  0
   -6.4987   29.7415    7.7876 C   0  0  0  0  0  0  0  0  0  0  0  0
   -5.2514   29.2801    7.3228 C   0  0  0  0  0  0  0  0  0  0  0  0
    0.6022   29.4260    6.2984 C   0  0  0  0  0  0  0  0  0  0  0  0
   -0.6337   29.1073    7.0435 C   0  0  0  0  0  0  0  0  0  0  0  0
   -0.8726   28.0963    7.9443 C   0  0  0  0  0  0  0  0  0  0  0  0
   -2.1737   28.2618    8.3250 N   0  0  0  0  0  0  0  0  0  0  0  0
   -2.7030   29.3325    7.6419 C   0  0  0  0  0  0  0  0  0  0  0  0
   -1.7604   29.8793    6.8897 N   0  0  0  0  0  0  0  0  0  0  0  0
   -2.6812   27.6964    8.9874 H   0  0  0  0  0  0  0  0  0  0  0  0
   -5.7593   27.1919    4.2534 C   0  0  0  0  0  0  0  0  0  0  0  0
   -6.0226   25.9102    4.7130 C   0  0  0  0  0  0  0  0  0  0  0  0
   -6.0206   25.0497    3.6427 N   0  0  0  0  0  0  0  0  0  0  0  0
   -5.7495   25.7440    2.4900 C   0  0  0  0  0  0  0  0  0  0  0  0
   -5.5795   27.0689    2.8417 C   0  0  0  0  0  0  0  0  0  0  0  0
   -6.1826   24.0490    3.6902 H   0  0  0  0  0  0  0  0  0  0  0  0
   -5.6789   25.0618    1.1748 C   0  0  0  0  0  0  0  0  0  0  0  0
   -6.2022   23.8140    1.2212 F   0  0  0  0  0  0  0  0  0  0  0  0
   -4.4049   24.9536    0.7290 F   0  0  0  0  0  0  0  0  0  0  0  0
   -6.3723   25.7479    0.2286 F   0  0  0  0  0  0  0  0  0  0  0  0
 11 12  1  0  0  0
 12 13  2  0  0  0
 13 14  1  0  0  0
 14 15  1  0  0  0
 15  5  1  0  0  0
  5  6  2  0  0  0
  6  7  1  0  0  0
  7  8  2  0  0  0
  8  9  1  0  0  0
  9 10  2  0  0  0
 10  1  1  0  0  0
  1  2  1  0  0  0
  2  3  2  0  0  0
  2 18  1  0  0  0
 18 19  2  0  0  0
 19 20  1  0  0  0
 20 21  1  0  0  0
 21 24  1  0  0  0
 24 25  1  0  0  0
 24 26  1  0  0  0
 24 27  1  0  0  0
 21 22  2  0  0  0
 15 16  2  0  0  0
 16 12  1  0  0  0
 10  5  1  0  0  0
 22 18  1  0  0  0
 14 17  1  0  0  0
  1  4  1  0  0  0
 20 23  1  0  0  0
M  END
> <minimizedAffinity>
-9.51098

$$$$
OCNT-2311905


 25 28  0  0  0  0  0  0  0  0999 V2000
   -4.0100   28.5853    7.2044 C   0  0  0  0  0  0  0  0  0  0  0  0
   -4.5923   27.6532    6.1031 C   0  0  0  0  0  0  0  0  0  0  0  0
   -3.5233   27.0452    5.2898 N   0  0  0  0  0  0  0  0  0  0  0  0
   -2.4823   26.3689    6.0894 C   0  0  0  0  0  0  0  0  0  0  0  0
   -1.9501   27.2877    7.2094 C   0  0  0  0  0  0  0  0  0  0  0  0
   -3.0034   27.8888    8.0533 N   0  0  0  0  0  0  0  0  0  0  0  0
   -3.4798   27.1277    8.5392 H   0  0  0  0  0  0  0  0  0  0  0  0
   -3.8512   26.4273    4.1079 C   0  0  0  0  0  0  0  0  0  0  0  0
   -3.0189   26.2604    3.0984 N   0  0  0  0  0  0  0  0  0  0  0  0
   -3.5870   25.6375    2.0079 N   0  0  0  0  0  0  0  0  0  0  0  0
   -4.8576   25.3395    2.1970 C   0  0  0  0  0  0  0  0  0  0  0  0
   -5.4331   25.8251    3.7442 S   0  0  0  0  0  0  0  0  0  0  0  0
   -5.7381   24.6859    1.2130 C   0  0  0  0  0  0  0  0  0  0  0  0
   -6.3752   25.3655    0.1738 C   0  0  0  0  0  0  0  0  0  0  0  0
   -7.1915   24.6520   -0.7035 C   0  0  0  0  0  0  0  0  0  0  0  0
   -7.3552   23.2848   -0.5243 C   0  0  0  0  0  0  0  0  0  0  0  0
   -6.6948   22.6831    0.5314 C   0  0  0  0  0  0  0  0  0  0  0  0
   -5.8985   23.3491    1.3947 N   0  0  0  0  0  0  0  0  0  0  0  0
   -3.4408   29.9060    6.6272 C   0  0  0  0  0  0  0  0  0  0  0  0
   -3.8755   33.2606    9.3082 C   0  0  0  0  0  0  0  0  0  0  0  0
   -4.8325   33.0264    8.3228 C   0  0  0  0  0  0  0  0  0  0  0  0
   -4.6884   31.9457    7.4520 C   0  0  0  0  0  0  0  0  0  0  0  0
   -3.5855   31.0873    7.5610 C   0  0  0  0  0  0  0  0  0  0  0  0
   -2.6269   31.3341    8.5529 C   0  0  0  0  0  0  0  0  0  0  0  0
   -2.7728   32.4157    9.4227 C   0  0  0  0  0  0  0  0  0  0  0  0
 20 21  2  0  0  0
 21 22  1  0  0  0
 22 23  2  0  0  0
 23 19  1  0  0  0
 19  1  1  0  0  0
  1  2  1  0  0  0
  2  3  1  0  0  0
  3  8  1  0  0  0
  8  9  2  0  0  0
  9 10  1  0  0  0
 10 11  2  0  0  0
 11 13  1  0  0  0
 13 14  2  0  0  0
 14 15  1  0  0  0
 15 16  2  0  0  0
 16 17  1  0  0  0
 17 18  2  0  0  0
 11 12  1  0  0  0
  3  4  1  0  0  0
  4  5  1  0  0  0
  5  6  1  0  0  0
 23 24  1  0  0  0
 24 25  2  0  0  0
 25 20  1  0  0  0
  6  1  1  0  0  0
 12  8  1  0  0  0
 18 13  1  0  0  0
  6  7  1  0  0  0
M  END
> <minimizedAffinity>
-9.36564

$$$$
OCNT-2311907


 23 25  0  0  0  0  0  0  0  0999 V2000
   -2.3392   26.4153    5.7288 C   0  0  0  0  0  0  0  0  0  0  0  0
    0.4936   29.4230    8.6456 C   0  0  0  0  0  0  0  0  0  0  0  0
   -0.6294   28.7344    8.0564 N   0  0  0  0  0  0  0  0  0  0  0  0
   -0.5993   27.6781    7.1404 C   0  0  0  0  0  0  0  0  0  0  0  0
   -1.8469   27.4478    6.6684 C   0  0  0  0  0  0  0  0  0  0  0  0
   -2.6792   28.3732    7.2947 N   0  0  0  0  0  0  0  0  0  0  0  0
   -3.9881   28.6937    7.3281 N   0  0  0  0  0  0  0  0  0  0  0  0
   -4.0241   29.7448    8.1642 C   0  0  0  0  0  0  0  0  0  0  0  0
   -2.7572   30.0892    8.6937 C   0  0  0  0  0  0  0  0  0  0  0  0
   -1.9192   29.1735    8.1312 C   0  0  0  0  0  0  0  0  0  0  0  0
   -2.4331   31.1291    9.6015 C   0  0  0  0  0  0  0  0  0  0  0  0
   -2.1645   31.9791   10.3448 N   0  0  0  0  0  0  0  0  0  0  0  0
   -3.3027   26.9800    4.7827 N   0  0  0  0  0  0  0  0  0  0  0  0
   -3.1488   27.9845    4.7058 H   0  0  0  0  0  0  0  0  0  0  0  0
   -3.1674   26.3599    3.4612 C   0  0  0  0  0  0  0  0  0  0  0  0
   -4.5134   26.3727    2.7247 C   0  0  0  0  0  0  0  0  0  0  0  0
   -4.9581   24.9788    2.3517 C   0  0  0  0  0  0  0  0  0  0  0  0
   -4.3858   23.8616    2.9763 C   0  0  0  0  0  0  0  0  0  0  0  0
   -4.7805   22.5706    2.6203 C   0  0  0  0  0  0  0  0  0  0  0  0
   -5.7479   22.3823    1.6338 C   0  0  0  0  0  0  0  0  0  0  0  0
   -6.3160   23.4890    1.0065 C   0  0  0  0  0  0  0  0  0  0  0  0
   -7.6243   23.2368   -0.3352 Br  0  0  0  0  0  0  0  0  0  0  0  0
   -5.9266   24.7822    1.3573 C   0  0  0  0  0  0  0  0  0  0  0  0
  2  3  1  0  0  0
  3  4  1  0  0  0
  4  5  2  0  0  0
  5  1  1  0  0  0
  1 13  1  0  0  0
 13 15  1  0  0  0
 15 16  1  0  0  0
 16 17  1  0  0  0
 17 18  2  0  0  0
 18 19  1  0  0  0
 19 20  2  0  0  0
 20 21  1  0  0  0
 21 22  1  0  0  0
 21 23  2  0  0  0
  5  6  1  0  0  0
  6  7  1  0  0  0
  7  8  2  0  0  0
  8  9  1  0  0  0
  9 11  1  0  0  0
 11 12  3  0  0  0
  9 10  2  0  0  0
 10  3  1  0  0  0
 23 17  1  0  0  0
 10  6  1  0  0  0
 13 14  1  0  0  0
M  END
> <minimizedAffinity>
-8.22307

$$$$
OCNT-2311908


 23 25  0  0  0  0  0  0  0  0999 V2000
   -2.7867   26.4386    5.3100 C   0  0  0  0  0  0  0  0  0  0  0  0
   -3.7744   27.4808    5.6046 N   0  0  0  0  0  0  0  0  0  0  0  0
   -4.9758   27.5662    4.8910 C   0  0  0  0  0  0  0  0  0  0  0  0
   -5.6648   28.5683    4.7198 O   0  0  0  0  0  0  0  0  0  0  0  0
   -3.4231   28.4410    6.5634 C   0  0  0  0  0  0  0  0  0  0  0  0
   -2.1770   28.8233    6.7522 N   0  0  0  0  0  0  0  0  0  0  0  0
   -2.1048   29.7499    7.7777 C   0  0  0  0  0  0  0  0  0  0  0  0
   -0.9358   30.3922    8.2339 C   0  0  0  0  0  0  0  0  0  0  0  0
   -1.0128   31.3095    9.2874 C   0  0  0  0  0  0  0  0  0  0  0  0
   -2.2356   31.5906    9.8888 C   0  0  0  0  0  0  0  0  0  0  0  0
   -3.4084   30.9643    9.4555 C   0  0  0  0  0  0  0  0  0  0  0  0
   -3.3181   30.0462    8.3964 C   0  0  0  0  0  0  0  0  0  0  0  0
   -4.5559   29.1203    7.6499 S   0  0  0  0  0  0  0  0  0  0  0  0
   -5.4889   26.3267    4.2539 C   0  0  0  0  0  0  0  0  0  0  0  0
   -6.0995   25.3306    5.0221 C   0  0  0  0  0  0  0  0  0  0  0  0
   -6.5996   24.1904    4.3956 C   0  0  0  0  0  0  0  0  0  0  0  0
   -6.4988   24.0473    3.0071 C   0  0  0  0  0  0  0  0  0  0  0  0
   -5.9008   25.0473    2.2353 C   0  0  0  0  0  0  0  0  0  0  0  0
   -5.4110   26.1955    2.8633 C   0  0  0  0  0  0  0  0  0  0  0  0
   -5.7555   25.0355    0.8767 O   0  0  0  0  0  0  0  0  0  0  0  0
   -6.9332   24.8565    0.1084 C   0  0  0  0  0  0  0  0  0  0  0  0
   -7.1074   25.9285   -0.7027 F   0  0  0  0  0  0  0  0  0  0  0  0
   -6.7316   23.7856   -0.7002 F   0  0  0  0  0  0  0  0  0  0  0  0
  1  2  1  0  0  0
  2  3  1  0  0  0
  3  4  2  0  0  0
  3 14  1  0  0  0
 14 15  2  0  0  0
 15 16  1  0  0  0
 16 17  2  0  0  0
 17 18  1  0  0  0
 18 20  1  0  0  0
 20 21  1  0  0  0
 21 22  1  0  0  0
 21 23  1  0  0  0
 18 19  2  0  0  0
  2  5  1  0  0  0
  5  6  2  0  0  0
  6  7  1  0  0  0
  7  8  2  0  0  0
  8  9  1  0  0  0
  9 10  2  0  0  0
 10 11  1  0  0  0
 11 12  2  0  0  0
 12 13  1  0  0  0
 19 14  1  0  0  0
 13  5  1  0  0  0
 12  7  1  0  0  0
M  END
> <minimizedAffinity>
-8.83093

$$$$
OCNT-2311909


 24 26  0  0  0  0  0  0  0  0999 V2000
   -6.5256   28.9182    7.1157 C   0  0  0  0  0  0  0  0  0  0  0  0
   -6.8979   30.3972    7.2724 C   0  0  0  0  0  0  0  0  0  0  0  0
   -6.3111   28.5573    5.6522 C   0  0  0  0  0  0  0  0  0  0  0  0
   -6.2700   29.5403    4.6505 C   0  0  0  0  0  0  0  0  0  0  0  0
   -6.0577   29.1903    3.3176 C   0  0  0  0  0  0  0  0  0  0  0  0
   -5.8809   27.8530    2.9643 C   0  0  0  0  0  0  0  0  0  0  0  0
   -5.9160   26.8521    3.9451 C   0  0  0  0  0  0  0  0  0  0  0  0
   -6.1310   27.2093    5.2855 C   0  0  0  0  0  0  0  0  0  0  0  0
   -5.7310   25.4930    3.5614 N   0  0  0  0  0  0  0  0  0  0  0  0
   -5.7498   24.9540    2.2903 C   0  0  0  0  0  0  0  0  0  0  0  0
   -5.5262   23.6034    2.4164 C   0  0  0  0  0  0  0  0  0  0  0  0
   -5.3818   23.3998    3.7944 C   0  0  0  0  0  0  0  0  0  0  0  0
   -5.5035   24.5280    4.4931 N   0  0  0  0  0  0  0  0  0  0  0  0
   -5.3515   28.6421    7.9516 N   0  0  0  0  0  0  0  0  0  0  0  0
   -5.6352   28.5398    8.9241 H   0  0  0  0  0  0  0  0  0  0  0  0
   -4.3286   29.6807    7.8587 C   0  0  0  0  0  0  0  0  0  0  0  0
    0.6072   29.4738    8.8017 C   0  0  0  0  0  0  0  0  0  0  0  0
   -0.6084   28.9651    8.0870 C   0  0  0  0  0  0  0  0  0  0  0  0
   -1.8486   29.5503    8.3181 C   0  0  0  0  0  0  0  0  0  0  0  0
   -2.9693   29.0648    7.6384 C   0  0  0  0  0  0  0  0  0  0  0  0
   -2.7947   28.0086    6.7406 C   0  0  0  0  0  0  0  0  0  0  0  0
   -1.5224   27.4731    6.5640 C   0  0  0  0  0  0  0  0  0  0  0  0
   -1.3113   26.3376    5.6080 C   0  0  0  0  0  0  0  0  0  0  0  0
   -0.4359   27.9356    7.2251 N   0  0  0  0  0  0  0  0  0  0  0  0
 17 18  1  0  0  0
 18 19  1  0  0  0
 19 20  2  0  0  0
 20 16  1  0  0  0
 16 14  1  0  0  0
 14  1  1  0  0  0
  1  2  1  0  0  0
  1  3  1  0  0  0
  3  4  2  0  0  0
  4  5  1  0  0  0
  5  6  2  0  0  0
  6  7  1  0  0  0
  7  9  1  0  0  0
  9 10  1  0  0  0
 10 11  2  0  0  0
 11 12  1  0  0  0
 12 13  2  0  0  0
  7  8  2  0  0  0
 20 21  1  0  0  0
 21 22  2  0  0  0
 22 23  1  0  0  0
 22 24  1  0  0  0
 24 18  2  0  0  0
  8  3  1  0  0  0
 13  9  1  0  0  0
 14 15  1  0  0  0
M  END
> <minimizedAffinity>
-8.87488

$$$$
OCNT-2311912


 23 24  0  0  0  0  0  0  0  0999 V2000
   -4.3663   26.1964    4.2378 C   0  0  0  0  0  0  0  0  0  0  0  0
   -1.2845   27.7880    6.8539 C   0  0  0  0  0  0  0  0  0  0  0  0
   -2.5577   28.3834    6.8332 C   0  0  0  0  0  0  0  0  0  0  0  0
   -3.5788   27.8718    6.0122 C   0  0  0  0  0  0  0  0  0  0  0  0
   -5.1501   28.6125    6.0445 Cl  0  0  0  0  0  0  0  0  0  0  0  0
   -3.3233   26.7780    5.1662 C   0  0  0  0  0  0  0  0  0  0  0  0
   -2.0371   26.2152    5.1677 C   0  0  0  0  0  0  0  0  0  0  0  0
   -1.0314   26.7100    6.0045 C   0  0  0  0  0  0  0  0  0  0  0  0
    0.6403   29.1631    7.1669 C   0  0  0  0  0  0  0  0  0  0  0  0
   -0.3698   28.3296    7.7191 O   0  0  0  0  0  0  0  0  0  0  0  0
   -2.8378   29.4336    7.6808 O   0  0  0  0  0  0  0  0  0  0  0  0
   -2.6924   30.6772    6.9946 C   0  0  0  0  0  0  0  0  0  0  0  0
   -3.8236   25.9906    2.8216 C   0  0  0  0  0  0  0  0  0  0  0  0
   -4.1015   24.6329    2.3594 N   0  0  0  0  0  0  0  0  0  0  0  0
   -5.0478   24.4223    1.5113 C   0  0  0  0  0  0  0  0  0  0  0  0
   -5.2290   23.1299    1.1250 N   0  0  0  0  0  0  0  0  0  0  0  0
   -6.5461   22.5236    1.0660 C   0  0  0  0  0  0  0  0  0  0  0  0
   -7.2246   22.8110   -0.2666 C   0  0  0  0  0  0  0  0  0  0  0  0
   -7.6203   24.2761   -0.4350 C   0  0  0  0  0  0  0  0  0  0  0  0
   -6.4299   25.2244   -0.3794 C   0  0  0  0  0  0  0  0  0  0  0  0
   -5.9049   25.3308    0.9687 N   0  0  0  0  0  0  0  0  0  0  0  0
   -4.5719   22.5581    1.6488 H   0  0  0  0  0  0  0  0  0  0  0  0
   -5.7206   26.2917    1.2306 H   0  0  0  0  0  0  0  0  0  0  0  0
  9 10  1  0  0  0
 10  2  1  0  0  0
  2  3  2  0  0  0
  3 11  1  0  0  0
 11 12  1  0  0  0
  3  4  1  0  0  0
  4  5  1  0  0  0
  4  6  2  0  0  0
  6  1  1  0  0  0
  1 13  1  0  0  0
 13 14  1  0  0  0
 14 15  2  0  0  0
 15 16  1  0  0  0
 16 17  1  0  0  0
 17 18  1  0  0  0
 18 19  1  0  0  0
 19 20  1  0  0  0
 20 21  1  0  0  0
  6  7  1  0  0  0
  7  8  2  0  0  0
  8  2  1  0  0  0
 21 15  1  0  0  0
 16 22  1  0  0  0
 21 23  1  0  0  0
M  END
> <minimizedAffinity>
-7.78934

$$$$
OCNT-2311913


 27 29  0  0  0  0  0  0  0  0999 V2000
   -4.4112   29.1722    7.3810 C   0  0  0  0  0  0  0  0  0  0  0  0
   -5.3947   28.6797    7.9216 O   0  0  0  0  0  0  0  0  0  0  0  0
   -3.9051   28.8434    6.1372 N   0  0  0  0  0  0  0  0  0  0  0  0
   -3.0509   29.3157    5.8712 H   0  0  0  0  0  0  0  0  0  0  0  0
   -4.4231   27.9204    5.1967 C   0  0  0  0  0  0  0  0  0  0  0  0
   -3.9198   26.6173    5.0725 C   0  0  0  0  0  0  0  0  0  0  0  0
   -4.4829   25.7779    4.1326 C   0  0  0  0  0  0  0  0  0  0  0  0
   -5.5140   26.1813    3.3248 C   0  0  0  0  0  0  0  0  0  0  0  0
   -6.0422   27.4486    3.4112 C   0  0  0  0  0  0  0  0  0  0  0  0
   -5.4975   28.3400    4.3568 C   0  0  0  0  0  0  0  0  0  0  0  0
   -6.0911   29.7223    4.4425 C   0  0  0  0  0  0  0  0  0  0  0  0
   -5.9224   25.2053    2.4715 O   0  0  0  0  0  0  0  0  0  0  0  0
   -5.0261   24.1354    2.8373 C   0  0  0  0  0  0  0  0  0  0  0  0
   -4.1088   24.4919    3.8907 O   0  0  0  0  0  0  0  0  0  0  0  0
   -3.6549   32.4511    9.0928 C   0  0  0  0  0  0  0  0  0  0  0  0
   -2.3646   32.2373    9.5808 C   0  0  0  0  0  0  0  0  0  0  0  0
   -1.7021   31.0329    9.3419 C   0  0  0  0  0  0  0  0  0  0  0  0
   -2.3270   30.0304    8.5965 C   0  0  0  0  0  0  0  0  0  0  0  0
   -3.6424   30.2104    8.1389 C   0  0  0  0  0  0  0  0  0  0  0  0
   -4.2908   31.4367    8.3769 C   0  0  0  0  0  0  0  0  0  0  0  0
   -4.8467   34.3668    8.3395 C   0  0  0  0  0  0  0  0  0  0  0  0
   -4.1816   33.6766    9.3917 O   0  0  0  0  0  0  0  0  0  0  0  0
   -1.6633   28.8513    8.3811 O   0  0  0  0  0  0  0  0  0  0  0  0
   -0.6325   29.0029    7.4017 C   0  0  0  0  0  0  0  0  0  0  0  0
   -0.8762   30.0496    6.5884 F   0  0  0  0  0  0  0  0  0  0  0  0
    0.5694   29.1570    7.9947 F   0  0  0  0  0  0  0  0  0  0  0  0
   -0.5938   27.8789    6.6546 F   0  0  0  0  0  0  0  0  0  0  0  0
 21 22  1  0  0  0
 22 15  1  0  0  0
 15 16  1  0  0  0
 16 17  2  0  0  0
 17 18  1  0  0  0
 18 23  1  0  0  0
 23 24  1  0  0  0
 24 25  1  0  0  0
 24 26  1  0  0  0
 24 27  1  0  0  0
 18 19  2  0  0  0
 19  1  1  0  0  0
  1  2  2  0  0  0
  1  3  1  0  0  0
  3  5  1  0  0  0
  5  6  1  0  0  0
  6  7  2  0  0  0
  7  8  1  0  0  0
  8  9  2  0  0  0
  9 10  1  0  0  0
 10 11  1  0  0  0
  8 12  1  0  0  0
 12 13  1  0  0  0
 13 14  1  0  0  0
 19 20  1  0  0  0
 20 15  2  0  0  0
 10  5  2  0  0  0
 14  7  1  0  0  0
  3  4  1  0  0  0
M  END
> <minimizedAffinity>
-8.95958

$$$$
OCNT-2311914


 32 35  0  0  0  0  0  0  0  0999 V2000
   -5.5102   29.6318    5.7851 C   0  0  0  0  0  0  0  0  0  0  0  0
   -5.9298   29.1584    6.8382 O   0  0  0  0  0  0  0  0  0  0  0  0
   -4.4882   30.5516    5.6644 N   0  0  0  0  0  0  0  0  0  0  0  0
   -4.1394   30.6741    4.7211 H   0  0  0  0  0  0  0  0  0  0  0  0
   -3.7619   31.2473    6.6660 C   0  0  0  0  0  0  0  0  0  0  0  0
   -4.5100   32.2213    7.3561 C   0  0  0  0  0  0  0  0  0  0  0  0
   -3.9480   32.9865    8.3814 C   0  0  0  0  0  0  0  0  0  0  0  0
   -2.6240   32.7886    8.7446 C   0  0  0  0  0  0  0  0  0  0  0  0
   -1.8675   31.8232    8.0843 C   0  0  0  0  0  0  0  0  0  0  0  0
   -2.4193   31.0502    7.0509 C   0  0  0  0  0  0  0  0  0  0  0  0
   -1.5648   30.0439    6.5003 N   0  0  0  0  0  0  0  0  0  0  0  0
   -1.6530   29.9490    5.4781 H   0  0  0  0  0  0  0  0  0  0  0  0
   -1.6187   28.4997    7.2017 S   0  0  0  0  0  0  0  0  0  0  0  0
   -0.3189   28.2700    7.8031 O   0  0  0  0  0  0  0  0  0  0  0  0
   -2.8335   28.3350    7.9726 O   0  0  0  0  0  0  0  0  0  0  0  0
   -1.6840   27.2892    5.8864 C   0  0  0  0  0  0  0  0  0  0  0  0
   -2.7585   26.7068    5.2382 C   0  0  0  0  0  0  0  0  0  0  0  0
   -2.3541   25.7649    4.2439 C   0  0  0  0  0  0  0  0  0  0  0  0
   -0.9835   25.6608    4.1674 C   0  0  0  0  0  0  0  0  0  0  0  0
   -0.1969   26.6943    5.2835 S   0  0  0  0  0  0  0  0  0  0  0  0
   -6.1269   29.2437    4.4489 C   0  0  0  0  0  0  0  0  0  0  0  0
   -5.7866   22.6461    4.5307 C   0  0  0  0  0  0  0  0  0  0  0  0
   -5.9102   23.5760    3.4144 N   0  0  0  0  0  0  0  0  0  0  0  0
   -5.2518   23.1595    2.1714 C   0  0  0  0  0  0  0  0  0  0  0  0
   -5.7244   24.0100    1.0052 C   0  0  0  0  0  0  0  0  0  0  0  0
   -5.3327   25.4549    1.2586 C   0  0  0  0  0  0  0  0  0  0  0  0
   -5.7094   25.8955    2.6525 C   0  0  0  0  0  0  0  0  0  0  0  0
   -5.7584   27.2783    2.9132 C   0  0  0  0  0  0  0  0  0  0  0  0
   -6.0838   27.7619    4.1837 C   0  0  0  0  0  0  0  0  0  0  0  0
   -6.3503   26.8404    5.1986 C   0  0  0  0  0  0  0  0  0  0  0  0
   -6.2923   25.4642    4.9420 C   0  0  0  0  0  0  0  0  0  0  0  0
   -5.9540   24.9529    3.6765 C   0  0  0  0  0  0  0  0  0  0  0  0
 22 23  1  0  0  0
 23 24  1  0  0  0
 24 25  1  0  0  0
 25 26  1  0  0  0
 26 27  1  0  0  0
 27 28  1  0  0  0
 28 29  2  0  0  0
 29 21  1  0  0  0
 21  1  1  0  0  0
  1  2  2  0  0  0
  1  3  1  0  0  0
  3  5  1  0  0  0
  5  6  2  0  0  0
  6  7  1  0  0  0
  7  8  2  0  0  0
  8  9  1  0  0  0
  9 10  2  0  0  0
 10 11  1  0  0  0
 11 13  1  0  0  0
 13 14  2  0  0  0
 13 15  2  0  0  0
 13 16  1  0  0  0
 16 17  2  0  0  0
 17 18  1  0  0  0
 18 19  2  0  0  0
 19 20  1  0  0  0
 29 30  1  0  0  0
 30 31  2  0  0  0
 31 32  1  0  0  0
 32 23  1  0  0  0
 32 27  2  0  0  0
 10  5  1  0  0  0
 20 16  1  0  0  0
  3  4  1  0  0  0
 11 12  1  0  0  0
M  END
> <minimizedAffinity>
-10.70159

$$$$
OCNT-2311918


 24 26  0  0  0  0  0  0  0  0999 V2000
   -3.4436   25.8318    4.8512 C   0  0  0  0  0  0  0  0  0  0  0  0
   -1.2543   31.8959    9.2852 C   0  0  0  0  0  0  0  0  0  0  0  0
   -1.4848   30.4080    9.0327 C   0  0  0  0  0  0  0  0  0  0  0  0
   -0.3372   29.8087    8.2127 C   0  0  0  0  0  0  0  0  0  0  0  0
   -0.5822   28.3315    7.9201 C   0  0  0  0  0  0  0  0  0  0  0  0
   -1.8870   28.0999    7.3030 N   0  0  0  0  0  0  0  0  0  0  0  0
   -1.9593   27.1721    6.2745 C   0  0  0  0  0  0  0  0  0  0  0  0
   -0.9682   26.7176    5.7087 O   0  0  0  0  0  0  0  0  0  0  0  0
   -3.2316   26.7990    5.9162 N   0  0  0  0  0  0  0  0  0  0  0  0
   -3.0339   28.6979    7.9890 C   0  0  0  0  0  0  0  0  0  0  0  0
   -2.8111   30.1767    8.3011 C   0  0  0  0  0  0  0  0  0  0  0  0
   -3.8581   26.7052    6.6998 H   0  0  0  0  0  0  0  0  0  0  0  0
   -3.5266   26.4870    3.4658 C   0  0  0  0  0  0  0  0  0  0  0  0
   -4.7591   27.3710    3.2879 C   0  0  0  0  0  0  0  0  0  0  0  0
   -5.8816   26.3803    2.9735 C   0  0  0  0  0  0  0  0  0  0  0  0
   -5.2030   25.2245    2.3718 N   0  0  0  0  0  0  0  0  0  0  0  0
   -3.7498   25.4375    2.3750 C   0  0  0  0  0  0  0  0  0  0  0  0
   -5.8374   24.3798    1.4672 C   0  0  0  0  0  0  0  0  0  0  0  0
   -6.5101   24.9250    0.3501 C   0  0  0  0  0  0  0  0  0  0  0  0
   -7.1839   24.1392   -0.5947 C   0  0  0  0  0  0  0  0  0  0  0  0
   -7.1987   22.7602   -0.4672 C   0  0  0  0  0  0  0  0  0  0  0  0
   -6.5246   22.1738    0.5963 C   0  0  0  0  0  0  0  0  0  0  0  0
   -5.8456   22.9633    1.5435 C   0  0  0  0  0  0  0  0  0  0  0  0
   -4.9665   22.0553    2.7348 Cl  0  0  0  0  0  0  0  0  0  0  0  0
  2  3  1  0  0  0
  3  4  1  0  0  0
  4  5  1  0  0  0
  5  6  1  0  0  0
  6  7  1  0  0  0
  7  8  2  0  0  0
  7  9  1  0  0  0
  9  1  1  0  0  0
  1 13  1  0  0  0
 13 14  1  0  0  0
 14 15  1  0  0  0
 15 16  1  0  0  0
 16 18  1  0  0  0
 18 19  2  0  0  0
 19 20  1  0  0  0
 20 21  2  0  0  0
 21 22  1  0  0  0
 22 23  2  0  0  0
 23 24  1  0  0  0
 16 17  1  0  0  0
  6 10  1  0  0  0
 10 11  1  0  0  0
 11  3  1  0  0  0
 17 13  1  0  0  0
 23 18  1  0  0  0
  9 12  1  0  0  0
M  END
> <minimizedAffinity>
-10.19954

$$$$
OCNT-2311929


 26 27  0  0  0  0  0  0  0  0999 V2000
   -0.6686   27.0164    6.5932 N   0  0  0  0  0  0  0  0  0  0  0  0
   -1.7975   26.7778    5.8356 C   0  0  0  0  0  0  0  0  0  0  0  0
   -2.9256   27.1117    6.1789 O   0  0  0  0  0  0  0  0  0  0  0  0
    0.2228   26.9628    6.1119 H   0  0  0  0  0  0  0  0  0  0  0  0
   -0.7365   27.8551    7.7798 C   0  0  0  0  0  0  0  0  0  0  0  0
    0.6476   29.2468    6.2135 C   0  0  0  0  0  0  0  0  0  0  0  0
    0.0224   29.2057    7.6288 C   0  0  0  0  0  0  0  0  0  0  0  0
    1.1948   29.2240    8.6367 C   0  0  0  0  0  0  0  0  0  0  0  0
   -0.9091   30.3891    7.9270 C   0  0  0  0  0  0  0  0  0  0  0  0
   -1.8791   30.8416    7.0319 C   0  0  0  0  0  0  0  0  0  0  0  0
   -2.7379   31.8612    7.2719 N   0  0  0  0  0  0  0  0  0  0  0  0
   -2.6311   32.4837    8.4617 C   0  0  0  0  0  0  0  0  0  0  0  0
   -1.7061   32.1309    9.4246 C   0  0  0  0  0  0  0  0  0  0  0  0
   -0.8401   31.0747    9.1513 C   0  0  0  0  0  0  0  0  0  0  0  0
   -1.4922   26.0357    4.5495 C   0  0  0  0  0  0  0  0  0  0  0  0
   -2.5941   26.2205    3.5062 C   0  0  0  0  0  0  0  0  0  0  0  0
   -3.6175   25.0890    3.5461 C   0  0  0  0  0  0  0  0  0  0  0  0
   -3.9630   24.7406    2.2068 O   0  0  0  0  0  0  0  0  0  0  0  0
   -4.7629   23.6443    2.0094 C   0  0  0  0  0  0  0  0  0  0  0  0
   -4.6572   22.4574    2.7442 C   0  0  0  0  0  0  0  0  0  0  0  0
   -5.5181   21.3879    2.4899 C   0  0  0  0  0  0  0  0  0  0  0  0
   -6.4945   21.4959    1.5022 C   0  0  0  0  0  0  0  0  0  0  0  0
   -6.6163   22.6761    0.7644 C   0  0  0  0  0  0  0  0  0  0  0  0
   -7.8545   22.7310   -0.4428 Cl  0  0  0  0  0  0  0  0  0  0  0  0
   -5.7549   23.7545    1.0143 C   0  0  0  0  0  0  0  0  0  0  0  0
   -5.8879   25.2275    0.1001 Cl  0  0  0  0  0  0  0  0  0  0  0  0
  6  7  1  0  0  0
  7  8  1  0  0  0
  7  5  1  0  0  0
  5  1  1  0  0  0
  1  2  1  0  0  0
  2  3  2  0  0  0
  2 15  1  0  0  0
 15 16  1  0  0  0
 16 17  1  0  0  0
 17 18  1  0  0  0
 18 19  1  0  0  0
 19 20  2  0  0  0
 20 21  1  0  0  0
 21 22  2  0  0  0
 22 23  1  0  0  0
 23 24  1  0  0  0
 23 25  2  0  0  0
 25 26  1  0  0  0
  7  9  1  0  0  0
  9 10  2  0  0  0
 10 11  1  0  0  0
 11 12  2  0  0  0
 12 13  1  0  0  0
 13 14  2  0  0  0
 25 19  1  0  0  0
 14  9  1  0  0  0
  1  4  1  0  0  0
M  END
> <minimizedAffinity>
-9.74015

$$$$
OCNT-2311931


 26 27  0  0  0  0  0  0  0  0999 V2000
   -2.7177   26.5855    4.9677 N   0  0  0  0  0  0  0  0  0  0  0  0
   -1.6788   26.9840    5.7676 C   0  0  0  0  0  0  0  0  0  0  0  0
   -0.4987   26.9052    5.4594 O   0  0  0  0  0  0  0  0  0  0  0  0
   -2.1410   27.4885    6.9564 N   0  0  0  0  0  0  0  0  0  0  0  0
   -3.4984   26.1970    5.4754 H   0  0  0  0  0  0  0  0  0  0  0  0
   -3.0907   27.8285    6.9352 H   0  0  0  0  0  0  0  0  0  0  0  0
   -2.4259   25.9206    3.7184 C   0  0  0  0  0  0  0  0  0  0  0  0
   -4.8233   26.0298    2.8655 C   0  0  0  0  0  0  0  0  0  0  0  0
   -5.9478   25.3915    2.3356 C   0  0  0  0  0  0  0  0  0  0  0  0
   -5.9186   24.0191    2.0796 C   0  0  0  0  0  0  0  0  0  0  0  0
   -7.3113   23.2460    1.4246 Cl  0  0  0  0  0  0  0  0  0  0  0  0
   -4.7772   23.2695    2.3416 C   0  0  0  0  0  0  0  0  0  0  0  0
   -3.6523   23.8969    2.8726 C   0  0  0  0  0  0  0  0  0  0  0  0
   -3.6668   25.2749    3.1500 C   0  0  0  0  0  0  0  0  0  0  0  0
   -4.7308   27.3694    3.1340 O   0  0  0  0  0  0  0  0  0  0  0  0
   -6.0809   29.3892    3.1909 C   0  0  0  0  0  0  0  0  0  0  0  0
   -5.7970   28.0325    3.8125 C   0  0  0  0  0  0  0  0  0  0  0  0
   -1.2322   28.0739    7.9250 C   0  0  0  0  0  0  0  0  0  0  0  0
   -1.8226   29.3051    8.6525 C   0  0  0  0  0  0  0  0  0  0  0  0
   -1.1117   30.5847    8.1802 C   0  0  0  0  0  0  0  0  0  0  0  0
   -1.1682   31.7465    9.1647 C   0  0  0  0  0  0  0  0  0  0  0  0
   -2.4927   31.9829    9.8772 C   0  0  0  0  0  0  0  0  0  0  0  0
   -3.7411   31.6956    9.0472 C   0  0  0  0  0  0  0  0  0  0  0  0
   -4.1455   30.2900    9.1456 N   0  0  0  0  0  0  0  0  0  0  0  0
   -5.5605   30.1467    8.7846 C   0  0  0  0  0  0  0  0  0  0  0  0
   -3.3384   29.3560    8.3476 C   0  0  0  0  0  0  0  0  0  0  0  0
 16 17  1  0  0  0
 17 15  1  0  0  0
 15  8  1  0  0  0
  8  9  1  0  0  0
  9 10  2  0  0  0
 10 11  1  0  0  0
 10 12  1  0  0  0
 12 13  2  0  0  0
 13 14  1  0  0  0
 14  7  1  0  0  0
  7  1  1  0  0  0
  1  2  1  0  0  0
  2  3  2  0  0  0
  2  4  1  0  0  0
  4 18  1  0  0  0
 18 19  1  0  0  0
 19 20  1  0  0  0
 20 21  1  0  0  0
 21 22  1  0  0  0
 22 23  1  0  0  0
 23 24  1  0  0  0
 24 25  1  0  0  0
 24 26  1  0  0  0
 14  8  2  0  0  0
 26 19  1  0  0  0
  1  5  1  0  0  0
  4  6  1  0  0  0
M  END
> <minimizedAffinity>
-8.62004

$$$$
OCNT-2311937


 27 29  0  0  0  0  0  0  0  0999 V2000
   -5.8295   31.1770    7.2868 N   0  0  0  0  0  0  0  0  0  0  0  0
   -5.5672   29.8328    7.1407 C   0  0  0  0  0  0  0  0  0  0  0  0
   -5.0467   29.1495    8.0151 O   0  0  0  0  0  0  0  0  0  0  0  0
   -6.2988   31.6755    6.5415 H   0  0  0  0  0  0  0  0  0  0  0  0
   -5.5913   31.8805    8.5364 C   0  0  0  0  0  0  0  0  0  0  0  0
   -5.0215   34.3137    8.0911 C   0  0  0  0  0  0  0  0  0  0  0  0
   -4.4705   32.9350    8.4474 C   0  0  0  0  0  0  0  0  0  0  0  0
   -3.5800   32.4978    7.4087 O   0  0  0  0  0  0  0  0  0  0  0  0
   -2.4842   31.7528    7.7389 C   0  0  0  0  0  0  0  0  0  0  0  0
   -1.9965   30.9524    6.7004 C   0  0  0  0  0  0  0  0  0  0  0  0
   -0.8769   30.1389    6.8903 C   0  0  0  0  0  0  0  0  0  0  0  0
   -0.2365   30.1307    8.1254 C   0  0  0  0  0  0  0  0  0  0  0  0
    1.1427   29.1327    8.3698 Cl  0  0  0  0  0  0  0  0  0  0  0  0
   -0.7059   30.9315    9.1645 C   0  0  0  0  0  0  0  0  0  0  0  0
   -1.8285   31.7450    8.9704 C   0  0  0  0  0  0  0  0  0  0  0  0
   -5.9202   29.2988    5.7655 C   0  0  0  0  0  0  0  0  0  0  0  0
   -6.0658   27.7768    5.7441 C   0  0  0  0  0  0  0  0  0  0  0  0
   -5.2237   27.1276    4.6682 C   0  0  0  0  0  0  0  0  0  0  0  0
   -5.8188   26.8343    3.4392 C   0  0  0  0  0  0  0  0  0  0  0  0
   -5.1801   26.2680    2.3953 N   0  0  0  0  0  0  0  0  0  0  0  0
   -3.8743   25.9803    2.5756 C   0  0  0  0  0  0  0  0  0  0  0  0
   -3.1596   26.2291    3.7473 C   0  0  0  0  0  0  0  0  0  0  0  0
   -1.7950   25.9051    3.8566 C   0  0  0  0  0  0  0  0  0  0  0  0
   -1.0957   26.1613    5.0336 C   0  0  0  0  0  0  0  0  0  0  0  0
   -1.7524   26.7423    6.1109 C   0  0  0  0  0  0  0  0  0  0  0  0
   -3.1085   27.0675    6.0119 C   0  0  0  0  0  0  0  0  0  0  0  0
   -3.8473   26.8208    4.8307 C   0  0  0  0  0  0  0  0  0  0  0  0
  6  7  1  0  0  0
  7  5  1  0  0  0
  5  1  1  0  0  0
  1  2  1  0  0  0
  2  3  2  0  0  0
  2 16  1  0  0  0
 16 17  1  0  0  0
 17 18  1  0  0  0
 18 19  1  0  0  0
 19 20  2  0  0  0
 20 21  1  0  0  0
 21 22  2  0  0  0
 22 23  1  0  0  0
 23 24  2  0  0  0
 24 25  1  0  0  0
 25 26  2  0  0  0
 26 27  1  0  0  0
  7  8  1  0  0  0
  8  9  1  0  0  0
  9 10  1  0  0  0
 10 11  2  0  0  0
 11 12  1  0  0  0
 12 13  1  0  0  0
 12 14  2  0  0  0
 14 15  1  0  0  0
 27 18  2  0  0  0
 15  9  2  0  0  0
 27 22  1  0  0  0
  1  4  1  0  0  0
M  END
> <minimizedAffinity>
-9.45760

$$$$
OCNT-2311956


 30 33  0  0  0  0  0  0  0  0999 V2000
   -6.0066   26.5305    4.4431 C   0  0  0  0  0  0  0  0  0  0  0  0
   -6.1516   27.3025    3.5036 O   0  0  0  0  0  0  0  0  0  0  0  0
   -5.8369   26.9468    5.7460 N   0  0  0  0  0  0  0  0  0  0  0  0
   -5.5883   26.2775    6.4609 H   0  0  0  0  0  0  0  0  0  0  0  0
   -6.0672   22.3968    1.4716 C   0  0  0  0  0  0  0  0  0  0  0  0
   -5.9685   21.0989    1.7894 N   0  0  0  0  0  0  0  0  0  0  0  0
   -5.8523   21.1021    3.1269 N   0  0  0  0  0  0  0  0  0  0  0  0
   -5.8630   22.3500    3.6902 C   0  0  0  0  0  0  0  0  0  0  0  0
   -5.7724   22.7693    5.0210 C   0  0  0  0  0  0  0  0  0  0  0  0
   -5.8238   24.1485    5.2601 C   0  0  0  0  0  0  0  0  0  0  0  0
   -5.9523   25.0621    4.2048 C   0  0  0  0  0  0  0  0  0  0  0  0
   -6.0611   24.6107    2.8787 C   0  0  0  0  0  0  0  0  0  0  0  0
   -6.0075   23.2288    2.6233 C   0  0  0  0  0  0  0  0  0  0  0  0
   -5.7697   20.2104    3.6010 H   0  0  0  0  0  0  0  0  0  0  0  0
   -6.2262   22.8116    0.0452 C   0  0  0  0  0  0  0  0  0  0  0  0
   -7.2220   25.0405   -0.6861 C   0  0  0  0  0  0  0  0  0  0  0  0
   -7.4996   23.6177   -0.2208 C   0  0  0  0  0  0  0  0  0  0  0  0
   -5.8955   28.3518    6.1159 C   0  0  0  0  0  0  0  0  0  0  0  0
   -4.6301   29.1409    5.7461 C   0  0  0  0  0  0  0  0  0  0  0  0
   -3.6069   29.0656    6.7902 N   0  0  0  0  0  0  0  0  0  0  0  0
   -2.7112   28.0028    6.7531 C   0  0  0  0  0  0  0  0  0  0  0  0
   -2.7014   27.1451    5.8706 O   0  0  0  0  0  0  0  0  0  0  0  0
   -1.7757   27.9183    7.9510 C   0  0  0  0  0  0  0  0  0  0  0  0
   -1.3240   29.1254    8.5307 O   0  0  0  0  0  0  0  0  0  0  0  0
   -2.2832   30.1003    8.5645 C   0  0  0  0  0  0  0  0  0  0  0  0
   -2.0336   31.1422    9.4624 C   0  0  0  0  0  0  0  0  0  0  0  0
   -2.9202   32.2099    9.5604 C   0  0  0  0  0  0  0  0  0  0  0  0
   -4.0496   32.2408    8.7494 C   0  0  0  0  0  0  0  0  0  0  0  0
   -4.2920   31.2065    7.8379 C   0  0  0  0  0  0  0  0  0  0  0  0
   -3.4137   30.1176    7.7322 C   0  0  0  0  0  0  0  0  0  0  0  0
 16 17  1  0  0  0
 17 15  1  0  0  0
 15  5  1  0  0  0
  5  6  2  0  0  0
  6  7  1  0  0  0
  7  8  1  0  0  0
  8  9  2  0  0  0
  9 10  1  0  0  0
 10 11  2  0  0  0
 11  1  1  0  0  0
  1  2  2  0  0  0
  1  3  1  0  0  0
  3 18  1  0  0  0
 18 19  1  0  0  0
 19 20  1  0  0  0
 20 21  1  0  0  0
 21 22  2  0  0  0
 21 23  1  0  0  0
 23 24  1  0  0  0
 24 25  1  0  0  0
 25 26  2  0  0  0
 26 27  1  0  0  0
 27 28  2  0  0  0
 28 29  1  0  0  0
 29 30  2  0  0  0
 11 12  1  0  0  0
 12 13  2  0  0  0
 13  5  1  0  0  0
 13  8  1  0  0  0
 30 20  1  0  0  0
 30 25  1  0  0  0
  7 14  1  0  0  0
  3  4  1  0  0  0
M  END
> <minimizedAffinity>
-10.00892

$$$$
OCNT-2311962


 26 29  0  0  0  0  0  0  0  0999 V2000
    0.1493   29.6295    9.3680 O   0  0  0  0  0  0  0  0  0  0  0  0
   -0.5979   30.2350    8.5986 C   0  0  0  0  0  0  0  0  0  0  0  0
   -1.0519   29.6718    7.4199 N   0  0  0  0  0  0  0  0  0  0  0  0
   -1.8671   30.1070    7.0041 H   0  0  0  0  0  0  0  0  0  0  0  0
   -1.1372   31.6791    8.8397 C   0  0  0  0  0  0  0  0  0  0  0  0
   -2.0240   31.9091   10.1045 C   0  0  0  0  0  0  0  0  0  0  0  0
   -3.2209   31.8917    9.1924 C   0  0  0  0  0  0  0  0  0  0  0  0
   -2.3574   32.1194    7.9728 C   0  0  0  0  0  0  0  0  0  0  0  0
   -4.3794   32.8182    9.4491 C   0  0  0  0  0  0  0  0  0  0  0  0
   -5.3050   31.6771    8.9371 C   0  0  0  0  0  0  0  0  0  0  0  0
   -6.4268   31.4661    9.6604 F   0  0  0  0  0  0  0  0  0  0  0  0
   -5.6860   31.7899    7.6426 F   0  0  0  0  0  0  0  0  0  0  0  0
   -4.1351   30.6874    9.1983 C   0  0  0  0  0  0  0  0  0  0  0  0
   -0.8819   28.2559    7.1425 C   0  0  0  0  0  0  0  0  0  0  0  0
   -0.3101   27.9490    5.7602 C   0  0  0  0  0  0  0  0  0  0  0  0
   -0.6055   26.4558    5.5939 C   0  0  0  0  0  0  0  0  0  0  0  0
   -1.9654   26.2453    6.2837 C   0  0  0  0  0  0  0  0  0  0  0  0
   -2.2283   27.5170    7.0942 C   0  0  0  0  0  0  0  0  0  0  0  0
   -2.7019   27.2337    8.4014 O   0  0  0  0  0  0  0  0  0  0  0  0
   -3.4688   26.6400    8.3175 H   0  0  0  0  0  0  0  0  0  0  0  0
   -0.5608   26.0156    4.1307 C   0  0  0  0  0  0  0  0  0  0  0  0
    0.7896   25.8371    3.6367 N   0  0  0  0  0  0  0  0  0  0  0  0
    1.4500   26.6664    2.7748 C   0  0  0  0  0  0  0  0  0  0  0  0
    2.6856   26.0863    2.6037 C   0  0  0  0  0  0  0  0  0  0  0  0
    2.7828   24.9255    3.3282 N   0  0  0  0  0  0  0  0  0  0  0  0
    1.6219   24.7954    3.9299 C   0  0  0  0  0  0  0  0  0  0  0  0
  1  2  2  0  0  0
  2  3  1  0  0  0
  3 14  1  0  0  0
 14 15  1  0  0  0
 15 16  1  0  0  0
 16 21  1  0  0  0
 21 22  1  0  0  0
 22 23  1  0  0  0
 23 24  2  0  0  0
 24 25  1  0  0  0
 25 26  2  0  0  0
 16 17  1  0  0  0
 17 18  1  0  0  0
 18 19  1  0  0  0
  2  5  1  0  0  0
  5  6  1  0  0  0
  6  7  1  0  0  0
  7  8  1  0  0  0
  7  9  1  0  0  0
  9 10  1  0  0  0
 10 11  1  0  0  0
 10 12  1  0  0  0
 10 13  1  0  0  0
 18 14  1  0  0  0
  8  5  1  0  0  0
 26 22  1  0  0  0
 13  7  1  0  0  0
  3  4  1  0  0  0
 19 20  1  0  0  0
M  END
> <minimizedAffinity>
-9.62348

$$$$
OCNT-2311967


 26 28  0  0  0  0  0  0  0  0999 V2000
   -6.4915   29.2071    5.5121 C   0  0  0  0  0  0  0  0  0  0  0  0
   -6.4236   27.8437    5.8088 C   0  0  0  0  0  0  0  0  0  0  0  0
   -6.1209   26.9025    4.8182 C   0  0  0  0  0  0  0  0  0  0  0  0
   -5.8896   27.3205    3.5106 C   0  0  0  0  0  0  0  0  0  0  0  0
   -5.9455   28.6843    3.2147 C   0  0  0  0  0  0  0  0  0  0  0  0
   -6.2490   29.6253    4.2058 C   0  0  0  0  0  0  0  0  0  0  0  0
   -6.7933   30.0030    6.5806 O   0  0  0  0  0  0  0  0  0  0  0  0
   -6.2563   29.6646    7.8666 C   0  0  0  0  0  0  0  0  0  0  0  0
   -5.6652   32.0207    7.6855 O   0  0  0  0  0  0  0  0  0  0  0  0
   -5.4745   30.8428    8.4782 C   0  0  0  0  0  0  0  0  0  0  0  0
   -5.0005   32.6692    7.9750 H   0  0  0  0  0  0  0  0  0  0  0  0
   -3.9907   30.5519    8.5747 C   0  0  0  0  0  0  0  0  0  0  0  0
   -3.4545   29.3596    8.0604 C   0  0  0  0  0  0  0  0  0  0  0  0
   -2.0873   29.0933    8.1622 C   0  0  0  0  0  0  0  0  0  0  0  0
   -1.2472   30.0156    8.7808 C   0  0  0  0  0  0  0  0  0  0  0  0
    0.4371   29.6886    8.9072 Cl  0  0  0  0  0  0  0  0  0  0  0  0
   -1.7625   31.2025    9.2974 C   0  0  0  0  0  0  0  0  0  0  0  0
   -3.1300   31.4704    9.1948 C   0  0  0  0  0  0  0  0  0  0  0  0
   -5.5736   26.5183    2.4501 O   0  0  0  0  0  0  0  0  0  0  0  0
   -5.5706   25.1018    2.6535 C   0  0  0  0  0  0  0  0  0  0  0  0
   -6.1023   24.3279    1.4762 C   0  0  0  0  0  0  0  0  0  0  0  0
   -6.6304   24.9471    0.3399 C   0  0  0  0  0  0  0  0  0  0  0  0
   -7.1318   24.1716   -0.7017 C   0  0  0  0  0  0  0  0  0  0  0  0
   -7.1004   22.7941   -0.5679 C   0  0  0  0  0  0  0  0  0  0  0  0
   -6.6152   22.1576    0.5191 N   0  0  0  0  0  0  0  0  0  0  0  0
   -6.1342   22.9368    1.5141 C   0  0  0  0  0  0  0  0  0  0  0  0
  9 10  1  0  0  0
 10  8  1  0  0  0
  8  7  1  0  0  0
  7  1  1  0  0  0
  1  2  1  0  0  0
  2  3  2  0  0  0
  3  4  1  0  0  0
  4 19  1  0  0  0
 19 20  1  0  0  0
 20 21  1  0  0  0
 21 22  1  0  0  0
 22 23  2  0  0  0
 23 24  1  0  0  0
 24 25  2  0  0  0
 25 26  1  0  0  0
  4  5  2  0  0  0
  5  6  1  0  0  0
 10 12  1  0  0  0
 12 13  1  0  0  0
 13 14  2  0  0  0
 14 15  1  0  0  0
 15 16  1  0  0  0
 15 17  2  0  0  0
 17 18  1  0  0  0
  6  1  2  0  0  0
 18 12  2  0  0  0
 26 21  2  0  0  0
  9 11  1  0  0  0
M  END
> <minimizedAffinity>
-9.44263

$$$$
OCNT-2311971


 23 25  0  0  0  0  0  0  0  0999 V2000
   -2.8544   27.5186    5.1934 N   0  0  0  0  0  0  0  0  0  0  0  0
   -2.3269   27.0287    6.3674 C   0  0  0  0  0  0  0  0  0  0  0  0
   -2.3507   25.8766    6.7788 O   0  0  0  0  0  0  0  0  0  0  0  0
   -2.6887   28.4945    4.9620 H   0  0  0  0  0  0  0  0  0  0  0  0
   -1.6111   28.0496    7.1720 C   0  0  0  0  0  0  0  0  0  0  0  0
   -0.2125   28.0516    7.0679 C   0  0  0  0  0  0  0  0  0  0  0  0
    0.5343   29.0048    7.7513 C   0  0  0  0  0  0  0  0  0  0  0  0
   -0.1133   29.9525    8.5420 C   0  0  0  0  0  0  0  0  0  0  0  0
   -1.5148   29.9469    8.6735 C   0  0  0  0  0  0  0  0  0  0  0  0
   -2.1800   30.8780    9.4754 C   0  0  0  0  0  0  0  0  0  0  0  0
   -3.5185   30.9195    9.6614 N   0  0  0  0  0  0  0  0  0  0  0  0
   -4.2409   29.9758    9.0304 C   0  0  0  0  0  0  0  0  0  0  0  0
   -3.6892   29.0063    8.2078 C   0  0  0  0  0  0  0  0  0  0  0  0
   -2.2931   28.9829    7.9968 C   0  0  0  0  0  0  0  0  0  0  0  0
   -4.9388   27.2320    4.0278 C   0  0  0  0  0  0  0  0  0  0  0  0
   -5.7341   26.5863    3.0745 C   0  0  0  0  0  0  0  0  0  0  0  0
   -5.2145   25.5316    2.3107 C   0  0  0  0  0  0  0  0  0  0  0  0
   -6.0584   24.8628    1.2653 C   0  0  0  0  0  0  0  0  0  0  0  0
   -3.8829   25.1471    2.4943 C   0  0  0  0  0  0  0  0  0  0  0  0
   -3.0817   25.7866    3.4436 C   0  0  0  0  0  0  0  0  0  0  0  0
   -3.5999   26.8277    4.2134 C   0  0  0  0  0  0  0  0  0  0  0  0
   -6.0987   29.3105    4.2163 C   0  0  0  0  0  0  0  0  0  0  0  0
   -5.3580   28.2659    4.8353 O   0  0  0  0  0  0  0  0  0  0  0  0
 22 23  1  0  0  0
 23 15  1  0  0  0
 15 16  1  0  0  0
 16 17  2  0  0  0
 17 18  1  0  0  0
 17 19  1  0  0  0
 19 20  2  0  0  0
 20 21  1  0  0  0
 21  1  1  0  0  0
  1  2  1  0  0  0
  2  3  2  0  0  0
  2  5  1  0  0  0
  5  6  2  0  0  0
  6  7  1  0  0  0
  7  8  2  0  0  0
  8  9  1  0  0  0
  9 10  2  0  0  0
 10 11  1  0  0  0
 11 12  2  0  0  0
 12 13  1  0  0  0
 13 14  2  0  0  0
 21 15  2  0  0  0
 14  5  1  0  0  0
 14  9  1  0  0  0
  1  4  1  0  0  0
M  END
> <minimizedAffinity>
-8.90584

$$$$
OCNT-2311975


 24 26  0  0  0  0  0  0  0  0999 V2000
   -5.2209   30.4041    7.5819 O   0  0  0  0  0  0  0  0  0  0  0  0
   -4.7004   29.7771    8.6682 C   0  0  0  0  0  0  0  0  0  0  0  0
   -5.2733   28.9523    9.3581 O   0  0  0  0  0  0  0  0  0  0  0  0
   -3.3285   30.2748    8.9068 C   0  0  0  0  0  0  0  0  0  0  0  0
   -3.1714   31.4577    9.6247 C   0  0  0  0  0  0  0  0  0  0  0  0
   -1.9778   32.0300    9.8953 N   0  0  0  0  0  0  0  0  0  0  0  0
   -0.8872   31.3898    9.4194 C   0  0  0  0  0  0  0  0  0  0  0  0
   -0.9177   30.2012    8.6851 C   0  0  0  0  0  0  0  0  0  0  0  0
    0.2671   29.5961    8.2285 C   0  0  0  0  0  0  0  0  0  0  0  0
    0.2254   28.4078    7.5027 C   0  0  0  0  0  0  0  0  0  0  0  0
   -0.9985   27.8118    7.2272 C   0  0  0  0  0  0  0  0  0  0  0  0
   -2.1823   28.4040    7.6757 C   0  0  0  0  0  0  0  0  0  0  0  0
   -2.1759   29.6149    8.4119 C   0  0  0  0  0  0  0  0  0  0  0  0
   -6.6510   30.5237    7.6018 C   0  0  0  0  0  0  0  0  0  0  0  0
   -7.2268   29.7132    6.4448 C   0  0  0  0  0  0  0  0  0  0  0  0
   -6.3362   29.6834    5.3319 O   0  0  0  0  0  0  0  0  0  0  0  0
   -5.8532   25.9309    3.5629 C   0  0  0  0  0  0  0  0  0  0  0  0
   -5.7181   27.0697    2.7642 C   0  0  0  0  0  0  0  0  0  0  0  0
   -5.8730   28.3505    3.3104 C   0  0  0  0  0  0  0  0  0  0  0  0
   -6.1552   28.5042    4.6666 C   0  0  0  0  0  0  0  0  0  0  0  0
   -6.2771   27.3656    5.4669 C   0  0  0  0  0  0  0  0  0  0  0  0
   -6.1225   26.0868    4.9232 C   0  0  0  0  0  0  0  0  0  0  0  0
   -5.5776   24.7862    1.0709 C   0  0  0  0  0  0  0  0  0  0  0  0
   -5.6339   24.3239    2.8229 S   0  0  0  0  0  0  0  0  0  0  0  0
 23 24  1  0  0  0
 24 17  1  0  0  0
 17 18  1  0  0  0
 18 19  2  0  0  0
 19 20  1  0  0  0
 20 16  1  0  0  0
 16 15  1  0  0  0
 15 14  1  0  0  0
 14  1  1  0  0  0
  1  2  1  0  0  0
  2  3  2  0  0  0
  2  4  1  0  0  0
  4  5  1  0  0  0
  5  6  2  0  0  0
  6  7  1  0  0  0
  7  8  2  0  0  0
  8  9  1  0  0  0
  9 10  2  0  0  0
 10 11  1  0  0  0
 11 12  2  0  0  0
 12 13  1  0  0  0
 20 21  2  0  0  0
 21 22  1  0  0  0
 22 17  2  0  0  0
 13  4  2  0  0  0
 13  8  1  0  0  0
M  END
> <minimizedAffinity>
-8.49381

$$$$
OCNT-2311986


 29 32  0  0  0  0  0  0  0  0999 V2000
   -3.5010   27.5120    5.3373 N   0  0  0  0  0  0  0  0  0  0  0  0
   -4.8618   27.3143    5.2144 C   0  0  0  0  0  0  0  0  0  0  0  0
   -5.7256   27.6691    6.0071 O   0  0  0  0  0  0  0  0  0  0  0  0
   -2.9275   27.1288    4.5995 H   0  0  0  0  0  0  0  0  0  0  0  0
   -2.6722   29.9610    7.8729 C   0  0  0  0  0  0  0  0  0  0  0  0
   -1.5608   29.3791    8.4776 C   0  0  0  0  0  0  0  0  0  0  0  0
   -1.0896   28.1595    8.0021 C   0  0  0  0  0  0  0  0  0  0  0  0
   -1.7430   27.5448    6.9405 C   0  0  0  0  0  0  0  0  0  0  0  0
   -2.8565   28.1654    6.3907 C   0  0  0  0  0  0  0  0  0  0  0  0
   -3.3090   29.3449    6.8438 N   0  0  0  0  0  0  0  0  0  0  0  0
   -4.9483   35.0928    9.4365 C   0  0  0  0  0  0  0  0  0  0  0  0
   -4.3809   33.7597    9.0579 C   0  0  0  0  0  0  0  0  0  0  0  0
   -3.5310   33.0679    9.9261 C   0  0  0  0  0  0  0  0  0  0  0  0
   -2.9756   31.8382    9.5497 C   0  0  0  0  0  0  0  0  0  0  0  0
   -3.2465   31.2605    8.2940 C   0  0  0  0  0  0  0  0  0  0  0  0
   -4.0869   31.9871    7.4267 C   0  0  0  0  0  0  0  0  0  0  0  0
   -4.6446   33.2155    7.7982 C   0  0  0  0  0  0  0  0  0  0  0  0
   -5.1998   26.5965    4.0074 C   0  0  0  0  0  0  0  0  0  0  0  0
   -5.5613   27.0249    2.7532 C   0  0  0  0  0  0  0  0  0  0  0  0
   -5.8052   25.9474    1.9400 N   0  0  0  0  0  0  0  0  0  0  0  0
   -5.5794   24.9018    2.7059 C   0  0  0  0  0  0  0  0  0  0  0  0
   -5.2030   25.2220    3.9842 O   0  0  0  0  0  0  0  0  0  0  0  0
   -5.6874   23.5955    2.3943 N   0  0  0  0  0  0  0  0  0  0  0  0
   -4.7238   22.6035    2.8650 C   0  0  0  0  0  0  0  0  0  0  0  0
   -5.3538   21.1915    2.8421 C   0  0  0  0  0  0  0  0  0  0  0  0
   -5.9218   20.7571    1.5478 N   0  0  0  0  0  0  0  0  0  0  0  0
   -6.1352   21.8932    0.6370 C   0  0  0  0  0  0  0  0  0  0  0  0
   -6.5972   23.2024    1.3170 C   0  0  0  0  0  0  0  0  0  0  0  0
   -6.8153   20.3024    1.7303 H   0  0  0  0  0  0  0  0  0  0  0  0
 11 12  1  0  0  0
 12 13  1  0  0  0
 13 14  2  0  0  0
 14 15  1  0  0  0
 15  5  1  0  0  0
  5  6  1  0  0  0
  6  7  2  0  0  0
  7  8  1  0  0  0
  8  9  2  0  0  0
  9  1  1  0  0  0
  1  2  1  0  0  0
  2  3  2  0  0  0
  2 18  1  0  0  0
 18 19  2  0  0  0
 19 20  1  0  0  0
 20 21  2  0  0  0
 21 23  1  0  0  0
 23 24  1  0  0  0
 24 25  1  0  0  0
 25 26  1  0  0  0
 26 27  1  0  0  0
 27 28  1  0  0  0
 21 22  1  0  0  0
  9 10  1  0  0  0
 15 16  2  0  0  0
 16 17  1  0  0  0
 17 12  2  0  0  0
 10  5  2  0  0  0
 22 18  1  0  0  0
 28 23  1  0  0  0
  1  4  1  0  0  0
 26 29  1  0  0  0
M  END
> <minimizedAffinity>
-10.07656

$$$$
OCNT-2311990


 35 38  0  0  0  0  0  0  0  0999 V2000
   -3.4119   26.1812    5.5240 O   0  0  0  0  0  0  0  0  0  0  0  0
   -2.5006   25.9824    4.7309 C   0  0  0  0  0  0  0  0  0  0  0  0
   -2.6065   25.4358    3.4701 N   0  0  0  0  0  0  0  0  0  0  0  0
   -1.1853   26.3129    5.0132 N   0  0  0  0  0  0  0  0  0  0  0  0
   -1.8552   25.6588    2.8357 H   0  0  0  0  0  0  0  0  0  0  0  0
   -0.5061   25.7580    4.5116 H   0  0  0  0  0  0  0  0  0  0  0  0
   -3.7398   24.8102    2.9119 C   0  0  0  0  0  0  0  0  0  0  0  0
   -4.3498   25.4280    1.8155 C   0  0  0  0  0  0  0  0  0  0  0  0
   -5.4617   24.8461    1.2051 C   0  0  0  0  0  0  0  0  0  0  0  0
   -5.9648   23.6317    1.6728 C   0  0  0  0  0  0  0  0  0  0  0  0
   -5.3539   22.9778    2.7504 C   0  0  0  0  0  0  0  0  0  0  0  0
   -4.2482   23.5922    3.3702 C   0  0  0  0  0  0  0  0  0  0  0  0
   -5.8524   21.6624    3.3155 C   0  0  0  0  0  0  0  0  0  0  0  0
   -6.9353   21.7754    4.2920 N   0  0  0  0  0  0  0  0  0  0  0  0
   -6.6567   22.1777    5.5827 C   0  0  0  0  0  0  0  0  0  0  0  0
   -7.6215   22.2686    6.4947 C   0  0  0  0  0  0  0  0  0  0  0  0
   -8.9603   21.9148    6.0014 C   0  0  0  0  0  0  0  0  0  0  0  0
   -9.2495   21.5354    4.8068 N   0  0  0  0  0  0  0  0  0  0  0  0
   -8.2351   21.4380    3.8817 C   0  0  0  0  0  0  0  0  0  0  0  0
   -8.4717   21.0636    2.7360 O   0  0  0  0  0  0  0  0  0  0  0  0
   -0.8199   26.8549    6.3358 C   0  0  0  0  0  0  0  0  0  0  0  0
   -2.0162   27.3461    7.1838 C   0  0  0  0  0  0  0  0  0  0  0  0
   -1.1130   28.5261    7.6438 C   0  0  0  0  0  0  0  0  0  0  0  0
   -0.3388   28.3238    6.3128 C   0  0  0  0  0  0  0  0  0  0  0  0
   -1.7244   29.9622    7.9330 C   0  0  0  0  0  0  0  0  0  0  0  0
   -2.5636   30.6480    7.0394 C   0  0  0  0  0  0  0  0  0  0  0  0
   -3.0757   31.9197    7.3247 C   0  0  0  0  0  0  0  0  0  0  0  0
   -2.7555   32.5670    8.5159 C   0  0  0  0  0  0  0  0  0  0  0  0
   -1.9298   31.9161    9.4235 C   0  0  0  0  0  0  0  0  0  0  0  0
   -1.4266   30.6404    9.1300 C   0  0  0  0  0  0  0  0  0  0  0  0
   -3.3168   33.8027    8.6648 O   0  0  0  0  0  0  0  0  0  0  0  0
   -4.6864   33.8570    9.0322 C   0  0  0  0  0  0  0  0  0  0  0  0
   -5.4612   34.1820    7.9752 F   0  0  0  0  0  0  0  0  0  0  0  0
   -4.8436   34.8120    9.9778 F   0  0  0  0  0  0  0  0  0  0  0  0
   -5.1034   32.6850    9.5552 F   0  0  0  0  0  0  0  0  0  0  0  0
  1  2  2  0  0  0
  2  3  1  0  0  0
  3  7  1  0  0  0
  7  8  1  0  0  0
  8  9  2  0  0  0
  9 10  1  0  0  0
 10 11  2  0  0  0
 11 13  1  0  0  0
 13 14  1  0  0  0
 14 15  1  0  0  0
 15 16  2  0  0  0
 16 17  1  0  0  0
 17 18  2  0  0  0
 18 19  1  0  0  0
 19 20  2  0  0  0
 11 12  1  0  0  0
  2  4  1  0  0  0
  4 21  1  0  0  0
 21 22  1  0  0  0
 22 23  1  0  0  0
 23 25  1  0  0  0
 25 26  1  0  0  0
 26 27  2  0  0  0
 27 28  1  0  0  0
 28 31  1  0  0  0
 31 32  1  0  0  0
 32 33  1  0  0  0
 32 34  1  0  0  0
 32 35  1  0  0  0
 28 29  2  0  0  0
 29 30  1  0  0  0
 23 24  1  0  0  0
 12  7  2  0  0  0
 24 21  1  0  0  0
 19 14  1  0  0  0
 30 25  2  0  0  0
  3  5  1  0  0  0
  4  6  1  0  0  0
M  END
> <minimizedAffinity>
-10.51995

$$$$
OCNT-2311994


 26 28  0  0  0  0  0  0  0  0999 V2000
   -4.2953   33.8163    9.0420 C   0  0  0  0  0  0  0  0  0  0  0  0
   -4.6613   32.4404    8.6294 C   0  0  0  0  0  0  0  0  0  0  0  0
   -5.9170   32.1798    8.2439 N   0  0  0  0  0  0  0  0  0  0  0  0
   -5.9409   30.8326    7.9237 O   0  0  0  0  0  0  0  0  0  0  0  0
   -4.7082   30.2896    8.1188 C   0  0  0  0  0  0  0  0  0  0  0  0
   -4.4210   28.9966    7.8930 N   0  0  0  0  0  0  0  0  0  0  0  0
   -3.1527   28.6580    8.1565 C   0  0  0  0  0  0  0  0  0  0  0  0
   -2.1892   29.5622    8.6031 C   0  0  0  0  0  0  0  0  0  0  0  0
   -2.5116   30.9146    8.8328 C   0  0  0  0  0  0  0  0  0  0  0  0
   -3.8467   31.2764    8.5732 C   0  0  0  0  0  0  0  0  0  0  0  0
   -1.4690   31.8806    9.3087 C   0  0  0  0  0  0  0  0  0  0  0  0
   -1.7597   32.3942   10.5346 F   0  0  0  0  0  0  0  0  0  0  0  0
   -0.2283   31.3321    9.4204 F   0  0  0  0  0  0  0  0  0  0  0  0
   -1.3323   32.9482    8.4771 F   0  0  0  0  0  0  0  0  0  0  0  0
   -2.8240   27.3229    7.9056 N   0  0  0  0  0  0  0  0  0  0  0  0
   -2.6151   26.9335    8.8284 H   0  0  0  0  0  0  0  0  0  0  0  0
   -1.6544   27.1507    7.0373 C   0  0  0  0  0  0  0  0  0  0  0  0
   -2.0862   26.7225    5.6476 C   0  0  0  0  0  0  0  0  0  0  0  0
   -3.4265   26.8446    5.2627 C   0  0  0  0  0  0  0  0  0  0  0  0
   -3.8516   26.4487    3.9862 C   0  0  0  0  0  0  0  0  0  0  0  0
   -2.8474   25.9616    3.1414 C   0  0  0  0  0  0  0  0  0  0  0  0
   -1.5374   25.8642    3.5935 C   0  0  0  0  0  0  0  0  0  0  0  0
   -1.1349   26.2269    4.8250 N   0  0  0  0  0  0  0  0  0  0  0  0
   -5.1848   26.5768    3.5727 N   0  0  0  0  0  0  0  0  0  0  0  0
   -5.9205   27.7937    3.9142 C   0  0  0  0  0  0  0  0  0  0  0  0
   -5.5933   25.9282    2.3256 C   0  0  0  0  0  0  0  0  0  0  0  0
  1  2  1  0  0  0
  2  3  2  0  0  0
  3  4  1  0  0  0
  4  5  1  0  0  0
  5  6  2  0  0  0
  6  7  1  0  0  0
  7 15  1  0  0  0
 15 17  1  0  0  0
 17 18  1  0  0  0
 18 19  2  0  0  0
 19 20  1  0  0  0
 20 24  1  0  0  0
 24 25  1  0  0  0
 24 26  1  0  0  0
 20 21  2  0  0  0
 21 22  1  0  0  0
 22 23  2  0  0  0
  7  8  2  0  0  0
  8  9  1  0  0  0
  9 11  1  0  0  0
 11 12  1  0  0  0
 11 13  1  0  0  0
 11 14  1  0  0  0
  9 10  2  0  0  0
 10  2  1  0  0  0
 10  5  1  0  0  0
 23 18  1  0  0  0
 15 16  1  0  0  0
M  END
> <minimizedAffinity>
-8.96496

$$$$
OCNT-2311998


 23 25  0  0  0  0  0  0  0  0999 V2000
    0.0020   28.3621    7.0044 C   0  0  0  0  0  0  0  0  0  0  0  0
    0.5474   29.0050    6.1121 O   0  0  0  0  0  0  0  0  0  0  0  0
   -0.5167   27.0971    6.7959 N   0  0  0  0  0  0  0  0  0  0  0  0
   -1.1008   26.6853    7.5103 H   0  0  0  0  0  0  0  0  0  0  0  0
    1.2366   29.2742    8.9863 C   0  0  0  0  0  0  0  0  0  0  0  0
   -0.1338   28.8468    8.4543 C   0  0  0  0  0  0  0  0  0  0  0  0
   -1.1824   29.9342    8.6397 C   0  0  0  0  0  0  0  0  0  0  0  0
   -0.8013   31.1986    9.1187 C   0  0  0  0  0  0  0  0  0  0  0  0
   -1.7471   32.2134    9.2872 C   0  0  0  0  0  0  0  0  0  0  0  0
   -3.0836   31.9709    8.9812 C   0  0  0  0  0  0  0  0  0  0  0  0
   -4.3633   33.3430    9.2112 Br  0  0  0  0  0  0  0  0  0  0  0  0
   -3.4833   30.7235    8.5103 C   0  0  0  0  0  0  0  0  0  0  0  0
   -2.5362   29.7106    8.3407 C   0  0  0  0  0  0  0  0  0  0  0  0
   -0.5950   26.5213    5.4721 C   0  0  0  0  0  0  0  0  0  0  0  0
   -2.0069   26.5964    4.9449 C   0  0  0  0  0  0  0  0  0  0  0  0
   -3.0090   27.2136    5.7143 C   0  0  0  0  0  0  0  0  0  0  0  0
   -4.3394   27.2809    5.2724 C   0  0  0  0  0  0  0  0  0  0  0  0
   -4.6662   26.7080    4.0325 C   0  0  0  0  0  0  0  0  0  0  0  0
   -5.8473   26.5668    3.2573 C   0  0  0  0  0  0  0  0  0  0  0  0
   -5.4849   25.8877    2.1167 C   0  0  0  0  0  0  0  0  0  0  0  0
   -4.1576   25.5973    2.1332 O   0  0  0  0  0  0  0  0  0  0  0  0
   -3.6577   26.0974    3.2974 C   0  0  0  0  0  0  0  0  0  0  0  0
   -2.3283   26.0139    3.7068 C   0  0  0  0  0  0  0  0  0  0  0  0
  5  6  1  0  0  0
  6  1  1  0  0  0
  1  2  2  0  0  0
  1  3  1  0  0  0
  3 14  1  0  0  0
 14 15  1  0  0  0
 15 16  2  0  0  0
 16 17  1  0  0  0
 17 18  2  0  0  0
 18 19  1  0  0  0
 19 20  2  0  0  0
 20 21  1  0  0  0
 21 22  1  0  0  0
 22 23  2  0  0  0
  6  7  1  0  0  0
  7  8  1  0  0  0
  8  9  2  0  0  0
  9 10  1  0  0  0
 10 11  1  0  0  0
 10 12  2  0  0  0
 12 13  1  0  0  0
 23 15  1  0  0  0
 13  7  2  0  0  0
 22 18  1  0  0  0
  3  4  1  0  0  0
M  END
> <minimizedAffinity>
-9.69136

$$$$
OCNT-2312000


 22 25  0  0  0  0  0  0  0  0999 V2000
   -2.0847   26.7415    4.6654 O   0  0  0  0  0  0  0  0  0  0  0  0
   -3.3008   26.6961    4.8613 C   0  0  0  0  0  0  0  0  0  0  0  0
   -4.0874   25.6888    4.3583 N   0  0  0  0  0  0  0  0  0  0  0  0
   -3.7387   24.8188    3.2413 C   0  0  0  0  0  0  0  0  0  0  0  0
   -5.2289   24.3913    3.2278 C   0  0  0  0  0  0  0  0  0  0  0  0
   -5.5013   25.7011    4.0159 C   0  0  0  0  0  0  0  0  0  0  0  0
   -5.9502   24.1417    1.8196 C   0  0  0  0  0  0  0  0  0  0  0  0
   -6.1114   25.1892    0.8816 C   0  0  0  0  0  0  0  0  0  0  0  0
   -6.7362   25.0050   -0.3563 C   0  0  0  0  0  0  0  0  0  0  0  0
   -7.2350   23.7572   -0.7035 C   0  0  0  0  0  0  0  0  0  0  0  0
   -7.1134   22.6991    0.1900 C   0  0  0  0  0  0  0  0  0  0  0  0
   -6.4908   22.8930    1.4316 C   0  0  0  0  0  0  0  0  0  0  0  0
   -6.4264   21.3884    2.5950 Br  0  0  0  0  0  0  0  0  0  0  0  0
   -4.0117   27.7621    5.6688 C   0  0  0  0  0  0  0  0  0  0  0  0
   -3.0917   28.3540    6.6729 C   0  0  0  0  0  0  0  0  0  0  0  0
   -2.4079   27.5682    7.5158 N   0  0  0  0  0  0  0  0  0  0  0  0
   -1.6536   28.4275    8.2967 O   0  0  0  0  0  0  0  0  0  0  0  0
   -1.8930   29.7163    7.9256 C   0  0  0  0  0  0  0  0  0  0  0  0
   -2.7960   29.7205    6.8909 C   0  0  0  0  0  0  0  0  0  0  0  0
   -1.2284   30.9394    8.6144 C   0  0  0  0  0  0  0  0  0  0  0  0
   -1.9365   31.6325    9.7491 C   0  0  0  0  0  0  0  0  0  0  0  0
   -1.7807   32.3267    8.4263 C   0  0  0  0  0  0  0  0  0  0  0  0
  1  2  2  0  0  0
  2 14  1  0  0  0
 14 15  1  0  0  0
 15 16  2  0  0  0
 16 17  1  0  0  0
 17 18  1  0  0  0
 18 20  1  0  0  0
 20 21  1  0  0  0
 21 22  1  0  0  0
 18 19  2  0  0  0
  2  3  1  0  0  0
  3  4  1  0  0  0
  4  5  1  0  0  0
  5  7  1  0  0  0
  7  8  2  0  0  0
  8  9  1  0  0  0
  9 10  2  0  0  0
 10 11  1  0  0  0
 11 12  2  0  0  0
 12 13  1  0  0  0
  5  6  1  0  0  0
 19 15  1  0  0  0
  6  3  1  0  0  0
 22 20  1  0  0  0
 12  7  1  0  0  0
M  END
> <minimizedAffinity>
-8.99875

$$$$
OCNT-2312008


 25 27  0  0  0  0  0  0  0  0999 V2000
   -5.7909   27.4070    3.4840 C   0  0  0  0  0  0  0  0  0  0  0  0
   -5.7306   27.0623    4.8426 C   0  0  0  0  0  0  0  0  0  0  0  0
   -5.8395   28.0314    5.8442 C   0  0  0  0  0  0  0  0  0  0  0  0
   -6.0587   29.3608    5.4987 C   0  0  0  0  0  0  0  0  0  0  0  0
   -6.1413   29.7256    4.1561 C   0  0  0  0  0  0  0  0  0  0  0  0
   -6.0301   28.7480    3.1606 C   0  0  0  0  0  0  0  0  0  0  0  0
   -5.7285   26.3919    2.5264 N   0  0  0  0  0  0  0  0  0  0  0  0
   -6.6319   26.2313    2.0766 H   0  0  0  0  0  0  0  0  0  0  0  0
   -5.0986   25.1065    2.8597 C   0  0  0  0  0  0  0  0  0  0  0  0
   -5.9674   23.9103    2.3635 C   0  0  0  0  0  0  0  0  0  0  0  0
   -5.1180   22.6202    2.3502 C   0  0  0  0  0  0  0  0  0  0  0  0
   -5.8634   21.4780    1.6701 C   0  0  0  0  0  0  0  0  0  0  0  0
   -6.2420   21.8447    0.3437 O   0  0  0  0  0  0  0  0  0  0  0  0
   -7.1395   22.9526    0.3398 C   0  0  0  0  0  0  0  0  0  0  0  0
   -6.4580   24.1807    0.9269 C   0  0  0  0  0  0  0  0  0  0  0  0
   -6.7465   23.5549    4.6575 C   0  0  0  0  0  0  0  0  0  0  0  0
   -7.0613   23.6436    3.2744 O   0  0  0  0  0  0  0  0  0  0  0  0
   -6.1293   30.2753    6.5232 O   0  0  0  0  0  0  0  0  0  0  0  0
   -4.9481   30.6360    7.1312 C   0  0  0  0  0  0  0  0  0  0  0  0
   -4.8609   30.4311    8.5094 C   0  0  0  0  0  0  0  0  0  0  0  0
   -3.7049   30.8048    9.1976 C   0  0  0  0  0  0  0  0  0  0  0  0
   -2.6486   31.3959    8.5046 C   0  0  0  0  0  0  0  0  0  0  0  0
   -1.2238   31.8567    9.3521 Cl  0  0  0  0  0  0  0  0  0  0  0  0
   -2.7407   31.6228    7.1315 C   0  0  0  0  0  0  0  0  0  0  0  0
   -3.8971   31.2493    6.4427 C   0  0  0  0  0  0  0  0  0  0  0  0
 16 17  1  0  0  0
 17 10  1  0  0  0
 10  9  1  0  0  0
  9  7  1  0  0  0
  7  1  1  0  0  0
  1  2  1  0  0  0
  2  3  2  0  0  0
  3  4  1  0  0  0
  4 18  1  0  0  0
 18 19  1  0  0  0
 19 20  1  0  0  0
 20 21  2  0  0  0
 21 22  1  0  0  0
 22 23  1  0  0  0
 22 24  2  0  0  0
 24 25  1  0  0  0
  4  5  2  0  0  0
  5  6  1  0  0  0
 10 11  1  0  0  0
 11 12  1  0  0  0
 12 13  1  0  0  0
 13 14  1  0  0  0
 14 15  1  0  0  0
 15 10  1  0  0  0
  6  1  2  0  0  0
 25 19  2  0  0  0
  7  8  1  0  0  0
M  END
> <minimizedAffinity>
-8.54993

$$$$
OCNT-2312014


 25 27  0  0  0  0  0  0  0  0999 V2000
   -5.5889   29.3025    5.4935 C   0  0  0  0  0  0  0  0  0  0  0  0
   -6.5800   29.7539    6.0537 O   0  0  0  0  0  0  0  0  0  0  0  0
   -4.3306   29.8577    5.6082 N   0  0  0  0  0  0  0  0  0  0  0  0
   -3.5315   29.3291    5.2865 H   0  0  0  0  0  0  0  0  0  0  0  0
   -5.9087   25.6584    3.1916 C   0  0  0  0  0  0  0  0  0  0  0  0
   -5.7699   26.9027    2.5485 C   0  0  0  0  0  0  0  0  0  0  0  0
   -5.6686   28.0962    3.2742 C   0  0  0  0  0  0  0  0  0  0  0  0
   -5.6946   28.0664    4.6706 C   0  0  0  0  0  0  0  0  0  0  0  0
   -5.8479   26.8413    5.3267 C   0  0  0  0  0  0  0  0  0  0  0  0
   -5.9485   25.6503    4.5953 C   0  0  0  0  0  0  0  0  0  0  0  0
   -7.1599   22.9061   -0.6978 C   0  0  0  0  0  0  0  0  0  0  0  0
   -6.5424   23.1325    0.6328 C   0  0  0  0  0  0  0  0  0  0  0  0
   -5.9030   22.1970    1.4189 C   0  0  0  0  0  0  0  0  0  0  0  0
   -5.3582   22.9221    2.8679 S   0  0  0  0  0  0  0  0  0  0  0  0
   -6.0066   24.4387    2.3612 C   0  0  0  0  0  0  0  0  0  0  0  0
   -6.5969   24.4036    1.1792 N   0  0  0  0  0  0  0  0  0  0  0  0
   -4.0902   31.0110    6.4605 C   0  0  0  0  0  0  0  0  0  0  0  0
   -2.6093   31.2094    6.8384 C   0  0  0  0  0  0  0  0  0  0  0  0
   -2.4391   32.1611    8.0269 C   0  0  0  0  0  0  0  0  0  0  0  0
   -1.9521   29.8861    7.1217 C   0  0  0  0  0  0  0  0  0  0  0  0
   -2.5111   28.8527    7.7180 N   0  0  0  0  0  0  0  0  0  0  0  0
   -1.5526   27.8758    7.7615 C   0  0  0  0  0  0  0  0  0  0  0  0
   -0.3896   28.3128    7.1782 C   0  0  0  0  0  0  0  0  0  0  0  0
   -0.6547   29.5903    6.7718 N   0  0  0  0  0  0  0  0  0  0  0  0
   -0.0143   30.2075    6.2929 H   0  0  0  0  0  0  0  0  0  0  0  0
 11 12  1  0  0  0
 12 13  2  0  0  0
 13 14  1  0  0  0
 14 15  1  0  0  0
 15  5  1  0  0  0
  5  6  1  0  0  0
  6  7  2  0  0  0
  7  8  1  0  0  0
  8  1  1  0  0  0
  1  2  2  0  0  0
  1  3  1  0  0  0
  3 17  1  0  0  0
 17 18  1  0  0  0
 18 19  1  0  0  0
 18 20  1  0  0  0
 20 21  2  0  0  0
 21 22  1  0  0  0
 22 23  2  0  0  0
 23 24  1  0  0  0
  8  9  2  0  0  0
  9 10  1  0  0  0
 15 16  2  0  0  0
 16 12  1  0  0  0
 10  5  2  0  0  0
 24 20  1  0  0  0
  3  4  1  0  0  0
 24 25  1  0  0  0
M  END
> <minimizedAffinity>
-8.76705

$$$$
OCNT-2312015


 24 26  0  0  0  0  0  0  0  0999 V2000
   -4.8541   27.2107    5.6396 N   0  0  0  0  0  0  0  0  0  0  0  0
   -3.7956   26.3031    5.1463 C   0  0  0  0  0  0  0  0  0  0  0  0
   -3.5067   26.4175    3.6310 C   0  0  0  0  0  0  0  0  0  0  0  0
   -4.6924   26.2429    2.7650 N   0  0  0  0  0  0  0  0  0  0  0  0
   -5.7743   27.1261    3.2535 C   0  0  0  0  0  0  0  0  0  0  0  0
   -6.0457   27.0586    4.7794 C   0  0  0  0  0  0  0  0  0  0  0  0
   -4.3671   28.6060    5.7109 C   0  0  0  0  0  0  0  0  0  0  0  0
   -4.6498   29.3097    7.0524 C   0  0  0  0  0  0  0  0  0  0  0  0
   -3.8148   28.7560    8.0831 O   0  0  0  0  0  0  0  0  0  0  0  0
   -1.5183   29.4877    8.2835 C   0  0  0  0  0  0  0  0  0  0  0  0
   -0.6124   30.4326    8.7835 C   0  0  0  0  0  0  0  0  0  0  0  0
   -1.0714   31.5283    9.5194 C   0  0  0  0  0  0  0  0  0  0  0  0
   -2.4355   31.6823    9.7657 C   0  0  0  0  0  0  0  0  0  0  0  0
   -3.3431   30.7463    9.2711 C   0  0  0  0  0  0  0  0  0  0  0  0
   -2.8862   29.6640    8.5168 C   0  0  0  0  0  0  0  0  0  0  0  0
   -0.5983   27.4666    6.9433 N   0  0  0  0  0  0  0  0  0  0  0  0
   -1.0276   28.3650    7.5408 C   0  0  0  0  0  0  0  0  0  0  0  0
   -5.1142   24.8326    2.6955 C   0  0  0  0  0  0  0  0  0  0  0  0
   -6.1889   24.5816    1.6176 C   0  0  0  0  0  0  0  0  0  0  0  0
   -5.8887   25.2370    0.2683 C   0  0  0  0  0  0  0  0  0  0  0  0
   -7.0558   25.0412   -0.7018 C   0  0  0  0  0  0  0  0  0  0  0  0
   -7.8407   23.8801   -0.4214 O   0  0  0  0  0  0  0  0  0  0  0  0
   -7.0495   22.7868    0.0304 C   0  0  0  0  0  0  0  0  0  0  0  0
   -6.4815   23.0824    1.4160 C   0  0  0  0  0  0  0  0  0  0  0  0
 16 17  3  0  0  0
 17 10  1  0  0  0
 10 11  2  0  0  0
 11 12  1  0  0  0
 12 13  2  0  0  0
 13 14  1  0  0  0
 14 15  2  0  0  0
 15  9  1  0  0  0
  9  8  1  0  0  0
  8  7  1  0  0  0
  7  1  1  0  0  0
  1  2  1  0  0  0
  2  3  1  0  0  0
  3  4  1  0  0  0
  4 18  1  0  0  0
 18 19  1  0  0  0
 19 20  1  0  0  0
 20 21  1  0  0  0
 21 22  1  0  0  0
 22 23  1  0  0  0
 23 24  1  0  0  0
  4  5  1  0  0  0
  5  6  1  0  0  0
 15 10  1  0  0  0
  6  1  1  0  0  0
 24 19  1  0  0  0
M  END
> <minimizedAffinity>
-8.26529

$$$$
OCNT-2312016


 28 31  0  0  0  0  0  0  0  0999 V2000
   -3.7556   26.7641    4.5639 C   0  0  0  0  0  0  0  0  0  0  0  0
   -3.1637   27.6521    5.5571 N   0  0  0  0  0  0  0  0  0  0  0  0
   -2.3314   27.1793    6.5484 C   0  0  0  0  0  0  0  0  0  0  0  0
   -2.0751   25.9985    6.7393 O   0  0  0  0  0  0  0  0  0  0  0  0
   -3.2312   28.6499    5.3962 H   0  0  0  0  0  0  0  0  0  0  0  0
   -1.6594   28.2125    7.3644 C   0  0  0  0  0  0  0  0  0  0  0  0
   -0.2667   28.2114    7.3381 C   0  0  0  0  0  0  0  0  0  0  0  0
    0.3829   29.1975    8.0447 C   0  0  0  0  0  0  0  0  0  0  0  0
   -0.2565   30.1532    8.7531 N   0  0  0  0  0  0  0  0  0  0  0  0
   -1.6004   30.1306    8.8049 C   0  0  0  0  0  0  0  0  0  0  0  0
   -2.2482   31.0949    9.5547 C   0  0  0  0  0  0  0  0  0  0  0  0
   -3.6280   31.0833    9.6370 C   0  0  0  0  0  0  0  0  0  0  0  0
   -4.3993   30.1659    9.0268 N   0  0  0  0  0  0  0  0  0  0  0  0
   -3.7555   29.2237    8.3045 C   0  0  0  0  0  0  0  0  0  0  0  0
   -2.3646   29.1652    8.1322 C   0  0  0  0  0  0  0  0  0  0  0  0
   -5.4339   28.3165    3.4559 C   0  0  0  0  0  0  0  0  0  0  0  0
   -5.2753   27.0110    4.2780 C   0  0  0  0  0  0  0  0  0  0  0  0
   -6.0317   27.2494    5.6094 C   0  0  0  0  0  0  0  0  0  0  0  0
   -5.9386   25.8725    3.5612 N   0  0  0  0  0  0  0  0  0  0  0  0
   -5.5998   24.5376    4.0900 C   0  0  0  0  0  0  0  0  0  0  0  0
   -6.5884   23.4829    3.5749 C   0  0  0  0  0  0  0  0  0  0  0  0
   -6.7285   23.5231    2.0777 C   0  0  0  0  0  0  0  0  0  0  0  0
   -7.2723   22.4318    1.3874 C   0  0  0  0  0  0  0  0  0  0  0  0
   -7.4277   22.4815    0.0028 C   0  0  0  0  0  0  0  0  0  0  0  0
   -7.0481   23.6225   -0.6996 C   0  0  0  0  0  0  0  0  0  0  0  0
   -6.5170   24.7174   -0.0170 C   0  0  0  0  0  0  0  0  0  0  0  0
   -6.3634   24.6840    1.3778 C   0  0  0  0  0  0  0  0  0  0  0  0
   -5.7559   25.8760    2.0936 C   0  0  0  0  0  0  0  0  0  0  0  0
 16 17  1  0  0  0
 17 18  1  0  0  0
 17  1  1  0  0  0
  1  2  1  0  0  0
  2  3  1  0  0  0
  3  4  2  0  0  0
  3  6  1  0  0  0
  6  7  2  0  0  0
  7  8  1  0  0  0
  8  9  2  0  0  0
  9 10  1  0  0  0
 10 11  2  0  0  0
 11 12  1  0  0  0
 12 13  2  0  0  0
 13 14  1  0  0  0
 14 15  2  0  0  0
 17 19  1  0  0  0
 19 20  1  0  0  0
 20 21  1  0  0  0
 21 22  1  0  0  0
 22 23  2  0  0  0
 23 24  1  0  0  0
 24 25  2  0  0  0
 25 26  1  0  0  0
 26 27  2  0  0  0
 27 28  1  0  0  0
 15  6  1  0  0  0
 28 19  1  0  0  0
 15 10  1  0  0  0
 27 22  1  0  0  0
  2  5  1  0  0  0
M  END
> <minimizedAffinity>
-10.54248

$$$$
OCNT-2312020


 27 30  0  0  0  0  0  0  0  0999 V2000
   -6.1936   29.5790    3.8678 O   0  0  0  0  0  0  0  0  0  0  0  0
   -6.2988   28.6130    4.6137 C   0  0  0  0  0  0  0  0  0  0  0  0
   -6.6911   28.7062    5.9309 N   0  0  0  0  0  0  0  0  0  0  0  0
   -6.8877   27.8696    6.4628 H   0  0  0  0  0  0  0  0  0  0  0  0
   -6.0159   27.2459    4.0997 C   0  0  0  0  0  0  0  0  0  0  0  0
   -6.0720   26.1805    5.0081 C   0  0  0  0  0  0  0  0  0  0  0  0
   -5.8254   24.8723    4.5896 C   0  0  0  0  0  0  0  0  0  0  0  0
   -5.8826   23.5669    5.7011 Cl  0  0  0  0  0  0  0  0  0  0  0  0
   -5.5332   24.6652    3.2414 C   0  0  0  0  0  0  0  0  0  0  0  0
   -5.2551   23.5280    2.5301 N   0  0  0  0  0  0  0  0  0  0  0  0
   -5.0320   23.7431    1.2211 N   0  0  0  0  0  0  0  0  0  0  0  0
   -5.1789   25.0637    1.0915 C   0  0  0  0  0  0  0  0  0  0  0  0
   -5.4859   25.7004    2.3147 C   0  0  0  0  0  0  0  0  0  0  0  0
   -5.7349   27.0183    2.7397 C   0  0  0  0  0  0  0  0  0  0  0  0
   -5.2064   22.5776    2.8824 H   0  0  0  0  0  0  0  0  0  0  0  0
   -7.0347   29.9798    6.5440 C   0  0  0  0  0  0  0  0  0  0  0  0
   -6.0119   30.4351    7.6092 C   0  0  0  0  0  0  0  0  0  0  0  0
   -4.5981   29.8922    7.3100 C   0  0  0  0  0  0  0  0  0  0  0  0
   -3.5305   30.5464    8.1561 C   0  0  0  0  0  0  0  0  0  0  0  0
   -2.2455   29.9899    8.2103 C   0  0  0  0  0  0  0  0  0  0  0  0
   -1.2452   30.5998    8.9661 C   0  0  0  0  0  0  0  0  0  0  0  0
   -1.5191   31.7706    9.6689 C   0  0  0  0  0  0  0  0  0  0  0  0
   -2.7929   32.3373    9.6125 C   0  0  0  0  0  0  0  0  0  0  0  0
   -3.8045   31.7404    8.8464 C   0  0  0  0  0  0  0  0  0  0  0  0
   -5.1865   32.3471    8.8231 C   0  0  0  0  0  0  0  0  0  0  0  0
   -5.9969   31.9139    7.6769 N   0  0  0  0  0  0  0  0  0  0  0  0
   -5.5467   32.2701    6.8318 H   0  0  0  0  0  0  0  0  0  0  0  0
  1  2  2  0  0  0
  2  3  1  0  0  0
  3 16  1  0  0  0
 16 17  1  0  0  0
 17 18  1  0  0  0
 18 19  1  0  0  0
 19 20  2  0  0  0
 20 21  1  0  0  0
 21 22  2  0  0  0
 22 23  1  0  0  0
 23 24  2  0  0  0
 24 25  1  0  0  0
 25 26  1  0  0  0
  2  5  1  0  0  0
  5  6  2  0  0  0
  6  7  1  0  0  0
  7  8  1  0  0  0
  7  9  2  0  0  0
  9 10  1  0  0  0
 10 11  1  0  0  0
 11 12  2  0  0  0
 12 13  1  0  0  0
 13 14  2  0  0  0
 26 17  1  0  0  0
 14  5  1  0  0  0
 24 19  1  0  0  0
 13  9  1  0  0  0
  3  4  1  0  0  0
 26 27  1  0  0  0
 10 15  1  0  0  0
M  END
> <minimizedAffinity>
-10.17595

$$$$
OCNT-2312021


 24 27  0  0  0  0  0  0  0  0999 V2000
   -5.0532   26.8317    3.4674 N   0  0  0  0  0  0  0  0  0  0  0  0
   -5.7364   27.7369    4.2814 C   0  0  0  0  0  0  0  0  0  0  0  0
   -6.1665   27.3188    5.4934 N   0  0  0  0  0  0  0  0  0  0  0  0
   -6.8100   28.2116    6.2828 C   0  0  0  0  0  0  0  0  0  0  0  0
   -7.0204   29.5136    5.9237 C   0  0  0  0  0  0  0  0  0  0  0  0
   -7.6537   30.3828    6.7140 F   0  0  0  0  0  0  0  0  0  0  0  0
   -6.5336   29.8714    4.6970 C   0  0  0  0  0  0  0  0  0  0  0  0
   -5.8942   29.0099    3.8716 N   0  0  0  0  0  0  0  0  0  0  0  0
   -4.3369   25.8009    4.2364 C   0  0  0  0  0  0  0  0  0  0  0  0
    0.5004   26.1875    3.8101 C   0  0  0  0  0  0  0  0  0  0  0  0
   -0.7900   26.2193    4.4575 N   0  0  0  0  0  0  0  0  0  0  0  0
   -1.0403   26.4519    5.7800 C   0  0  0  0  0  0  0  0  0  0  0  0
   -2.3998   26.3267    5.9344 C   0  0  0  0  0  0  0  0  0  0  0  0
   -2.8952   26.0370    4.6351 C   0  0  0  0  0  0  0  0  0  0  0  0
   -1.9008   26.0055    3.7301 N   0  0  0  0  0  0  0  0  0  0  0  0
   -5.7694   26.3999    2.2654 C   0  0  0  0  0  0  0  0  0  0  0  0
   -5.8743   24.9030    2.2438 C   0  0  0  0  0  0  0  0  0  0  0  0
   -4.9212   24.1654    1.3745 C   0  0  0  0  0  0  0  0  0  0  0  0
   -4.0338   24.8470    0.5742 F   0  0  0  0  0  0  0  0  0  0  0  0
   -4.2752   23.0478    1.8477 F   0  0  0  0  0  0  0  0  0  0  0  0
   -6.3581   24.1232    1.0495 C   0  0  0  0  0  0  0  0  0  0  0  0
   -6.9919   24.6136   -0.1959 C   0  0  0  0  0  0  0  0  0  0  0  0
   -7.3685   23.1350   -0.4295 C   0  0  0  0  0  0  0  0  0  0  0  0
   -7.2205   22.9191    1.0887 C   0  0  0  0  0  0  0  0  0  0  0  0
 10 11  1  0  0  0
 11 12  1  0  0  0
 12 13  2  0  0  0
 13 14  1  0  0  0
 14  9  1  0  0  0
  9  1  1  0  0  0
  1 16  1  0  0  0
 16 17  1  0  0  0
 17 18  1  0  0  0
 18 19  1  0  0  0
 18 20  1  0  0  0
 18 21  1  0  0  0
 21 22  1  0  0  0
 22 23  1  0  0  0
 23 24  1  0  0  0
  1  2  1  0  0  0
  2  3  2  0  0  0
  3  4  1  0  0  0
  4  5  2  0  0  0
  5  6  1  0  0  0
  5  7  1  0  0  0
  7  8  2  0  0  0
 14 15  2  0  0  0
 15 11  1  0  0  0
 21 17  1  0  0  0
  8  2  1  0  0  0
 24 21  1  0  0  0
M  END
> <minimizedAffinity>
-8.85639

$$$$
OCNT-2312024


 26 30  0  0  0  0  0  0  0  0999 V2000
   -5.2952   26.4449    5.0081 C   0  0  0  0  0  0  0  0  0  0  0  0
   -6.5291   26.4024    4.9724 O   0  0  0  0  0  0  0  0  0  0  0  0
   -4.4874   25.3240    4.7268 N   0  0  0  0  0  0  0  0  0  0  0  0
   -3.3258   25.5670    3.8503 C   0  0  0  0  0  0  0  0  0  0  0  0
   -3.7588   25.7315    2.3705 C   0  0  0  0  0  0  0  0  0  0  0  0
   -4.9674   24.8835    2.0610 C   0  0  0  0  0  0  0  0  0  0  0  0
   -5.6695   24.1295    2.9981 C   0  0  0  0  0  0  0  0  0  0  0  0
   -6.8556   23.5879    2.4060 C   0  0  0  0  0  0  0  0  0  0  0  0
   -6.9638   23.8896    1.0649 C   0  0  0  0  0  0  0  0  0  0  0  0
   -5.6640   24.8508    0.5114 S   0  0  0  0  0  0  0  0  0  0  0  0
   -5.1223   24.0266    4.4117 C   0  0  0  0  0  0  0  0  0  0  0  0
   -2.7217   30.1656    8.2848 C   0  0  0  0  0  0  0  0  0  0  0  0
   -3.1904   30.2039    6.7981 C   0  0  0  0  0  0  0  0  0  0  0  0
   -3.9405   28.9190    7.0689 C   0  0  0  0  0  0  0  0  0  0  0  0
   -3.8499   29.1248    8.5581 C   0  0  0  0  0  0  0  0  0  0  0  0
   -5.2768   28.7011    6.4132 C   0  0  0  0  0  0  0  0  0  0  0  0
   -4.5461   27.7467    5.4076 C   0  0  0  0  0  0  0  0  0  0  0  0
   -3.4023   27.6403    6.4705 C   0  0  0  0  0  0  0  0  0  0  0  0
   -0.2893   29.2871    8.6438 N   0  0  0  0  0  0  0  0  0  0  0  0
   -1.3698   29.6807    8.4902 C   0  0  0  0  0  0  0  0  0  0  0  0
   -6.0510   23.3235    5.3886 C   0  0  0  0  0  0  0  0  0  0  0  0
   -7.4328   23.5496    5.4670 C   0  0  0  0  0  0  0  0  0  0  0  0
   -8.2245   22.9145    6.4317 C   0  0  0  0  0  0  0  0  0  0  0  0
   -7.6476   22.0577    7.3628 C   0  0  0  0  0  0  0  0  0  0  0  0
   -6.2754   21.8444    7.3394 C   0  0  0  0  0  0  0  0  0  0  0  0
   -5.4890   22.4786    6.3737 C   0  0  0  0  0  0  0  0  0  0  0  0
 19 20  3  0  0  0
 20 12  1  0  0  0
 12 13  1  0  0  0
 13 14  1  0  0  0
 14 15  1  0  0  0
 14 16  1  0  0  0
 16 17  1  0  0  0
 17  1  1  0  0  0
  1  2  2  0  0  0
  1  3  1  0  0  0
  3  4  1  0  0  0
  4  5  1  0  0  0
  5  6  1  0  0  0
  6  7  2  0  0  0
  7  8  1  0  0  0
  8  9  2  0  0  0
  9 10  1  0  0  0
  7 11  1  0  0  0
 11 21  1  0  0  0
 21 22  2  0  0  0
 22 23  1  0  0  0
 23 24  2  0  0  0
 24 25  1  0  0  0
 25 26  2  0  0  0
 17 18  1  0  0  0
 15 12  1  0  0  0
 11  3  1  0  0  0
 26 21  1  0  0  0
 18 14  1  0  0  0
 10  6  1  0  0  0
M  END
> <minimizedAffinity>
-9.19737

$$$$
OCNT-2312038


 25 27  0  0  0  0  0  0  0  0999 V2000
   -2.8999   26.0403    5.5751 O   0  0  0  0  0  0  0  0  0  0  0  0
   -3.7276   26.9229    5.3693 C   0  0  0  0  0  0  0  0  0  0  0  0
   -3.9113   27.9249    6.2926 N   0  0  0  0  0  0  0  0  0  0  0  0
   -5.1962   28.6221    6.3924 C   0  0  0  0  0  0  0  0  0  0  0  0
   -5.7800   28.9826    5.0098 C   0  0  0  0  0  0  0  0  0  0  0  0
   -6.7179   29.7543    4.8371 O   0  0  0  0  0  0  0  0  0  0  0  0
   -5.2855   28.2524    3.9523 N   0  0  0  0  0  0  0  0  0  0  0  0
   -4.7115   26.9277    4.1803 C   0  0  0  0  0  0  0  0  0  0  0  0
   -3.3445   27.8069    7.1242 H   0  0  0  0  0  0  0  0  0  0  0  0
   -5.8059   28.4207    3.1004 H   0  0  0  0  0  0  0  0  0  0  0  0
   -5.1359   29.8507    7.3071 C   0  0  0  0  0  0  0  0  0  0  0  0
   -3.7604   30.4475    7.3764 C   0  0  0  0  0  0  0  0  0  0  0  0
   -3.1244   30.9663    6.3486 N   0  0  0  0  0  0  0  0  0  0  0  0
   -1.8788   31.4108    6.7419 C   0  0  0  0  0  0  0  0  0  0  0  0
   -1.5782   31.2325    8.0739 C   0  0  0  0  0  0  0  0  0  0  0  0
   -2.8984   30.4839    8.8679 S   0  0  0  0  0  0  0  0  0  0  0  0
   -4.0704   26.3345    2.9128 C   0  0  0  0  0  0  0  0  0  0  0  0
   -4.7922   25.1354    2.3333 C   0  0  0  0  0  0  0  0  0  0  0  0
   -4.5897   23.8525    2.8636 C   0  0  0  0  0  0  0  0  0  0  0  0
   -5.2724   22.7542    2.3358 C   0  0  0  0  0  0  0  0  0  0  0  0
   -5.0088   21.1894    3.0028 Cl  0  0  0  0  0  0  0  0  0  0  0  0
   -6.1613   22.9108    1.2771 C   0  0  0  0  0  0  0  0  0  0  0  0
   -6.3631   24.1805    0.7449 C   0  0  0  0  0  0  0  0  0  0  0  0
   -7.4592   24.3889   -0.5658 Cl  0  0  0  0  0  0  0  0  0  0  0  0
   -5.6859   25.2868    1.2625 C   0  0  0  0  0  0  0  0  0  0  0  0
  1  2  2  0  0  0
  2  3  1  0  0  0
  3  4  1  0  0  0
  4 11  1  0  0  0
 11 12  1  0  0  0
 12 13  2  0  0  0
 13 14  1  0  0  0
 14 15  2  0  0  0
 15 16  1  0  0  0
  4  5  1  0  0  0
  5  6  2  0  0  0
  5  7  1  0  0  0
  7  8  1  0  0  0
  8 17  1  0  0  0
 17 18  1  0  0  0
 18 19  2  0  0  0
 19 20  1  0  0  0
 20 21  1  0  0  0
 20 22  2  0  0  0
 22 23  1  0  0  0
 23 24  1  0  0  0
 23 25  2  0  0  0
  8  2  1  0  0  0
 25 18  1  0  0  0
 16 12  1  0  0  0
  3  9  1  0  0  0
  7 10  1  0  0  0
M  END
> <minimizedAffinity>
-8.74038

$$$$
OCNT-2312044


 22 24  0  0  0  0  0  0  0  0999 V2000
   -2.2627   26.2505    4.2658 C   0  0  0  0  0  0  0  0  0  0  0  0
   -3.0976   25.8367    3.2400 C   0  0  0  0  0  0  0  0  0  0  0  0
   -4.4389   26.2189    3.2864 C   0  0  0  0  0  0  0  0  0  0  0  0
   -4.8718   26.9906    4.3715 C   0  0  0  0  0  0  0  0  0  0  0  0
   -3.9719   27.3767    5.3654 C   0  0  0  0  0  0  0  0  0  0  0  0
   -2.6773   27.0050    5.3116 N   0  0  0  0  0  0  0  0  0  0  0  0
   -4.4489   28.1550    6.4474 N   0  0  0  0  0  0  0  0  0  0  0  0
   -5.8894   28.4142    6.2870 C   0  0  0  0  0  0  0  0  0  0  0  0
   -6.5158   29.0792    7.5122 C   0  0  0  0  0  0  0  0  0  0  0  0
   -6.1571   30.5615    7.6276 C   0  0  0  0  0  0  0  0  0  0  0  0
   -4.8909   30.8770    8.2946 N   0  0  0  0  0  0  0  0  0  0  0  0
   -3.8003   29.9110    8.0904 C   0  0  0  0  0  0  0  0  0  0  0  0
   -3.6109   29.3553    6.6657 C   0  0  0  0  0  0  0  0  0  0  0  0
   -4.4744   32.2696    8.0501 C   0  0  0  0  0  0  0  0  0  0  0  0
   -4.4217   33.2351    9.2036 C   0  0  0  0  0  0  0  0  0  0  0  0
   -3.1488   32.7433    8.5828 C   0  0  0  0  0  0  0  0  0  0  0  0
   -5.4110   25.7795    2.2265 C   0  0  0  0  0  0  0  0  0  0  0  0
   -6.2682   24.8167    2.6644 F   0  0  0  0  0  0  0  0  0  0  0  0
   -4.7999   25.2622    1.1261 F   0  0  0  0  0  0  0  0  0  0  0  0
   -6.1888   26.8028    1.7838 F   0  0  0  0  0  0  0  0  0  0  0  0
    0.2510   25.5920    4.2322 N   0  0  0  0  0  0  0  0  0  0  0  0
   -0.8721   25.8883    4.2710 C   0  0  0  0  0  0  0  0  0  0  0  0
 21 22  3  0  0  0
 22  1  1  0  0  0
  1  2  1  0  0  0
  2  3  2  0  0  0
  3 17  1  0  0  0
 17 18  1  0  0  0
 17 19  1  0  0  0
 17 20  1  0  0  0
  3  4  1  0  0  0
  4  5  2  0  0  0
  5  7  1  0  0  0
  7  8  1  0  0  0
  8  9  1  0  0  0
  9 10  1  0  0  0
 10 11  1  0  0  0
 11 14  1  0  0  0
 14 15  1  0  0  0
 15 16  1  0  0  0
 11 12  1  0  0  0
 12 13  1  0  0  0
  5  6  1  0  0  0
  6  1  2  0  0  0
 13  7  1  0  0  0
 16 14  1  0  0  0
M  END
> <minimizedAffinity>
-7.80494

$$$$
OCNT-2312049


 24 26  0  0  0  0  0  0  0  0999 V2000
   -4.4705   25.9718    3.7160 N   0  0  0  0  0  0  0  0  0  0  0  0
   -6.5528   24.2326    1.3585 C   0  0  0  0  0  0  0  0  0  0  0  0
   -7.1971   23.2850    2.0525 N   0  0  0  0  0  0  0  0  0  0  0  0
   -6.9091   23.2364    3.3591 C   0  0  0  0  0  0  0  0  0  0  0  0
   -6.0169   24.0845    3.9805 C   0  0  0  0  0  0  0  0  0  0  0  0
   -5.3804   25.0348    3.2022 C   0  0  0  0  0  0  0  0  0  0  0  0
   -5.6635   25.0977    1.8840 N   0  0  0  0  0  0  0  0  0  0  0  0
   -7.2624   23.0217   -0.7034 C   0  0  0  0  0  0  0  0  0  0  0  0
   -6.8627   24.3607   -0.1062 C   0  0  0  0  0  0  0  0  0  0  0  0
   -3.8486   25.5116    4.9803 C   0  0  0  0  0  0  0  0  0  0  0  0
   -2.5810   26.1901    5.4044 C   0  0  0  0  0  0  0  0  0  0  0  0
   -2.3432   27.0183    6.4811 C   0  0  0  0  0  0  0  0  0  0  0  0
   -1.0324   27.3620    6.3522 N   0  0  0  0  0  0  0  0  0  0  0  0
   -0.4804   26.7846    5.2697 N   0  0  0  0  0  0  0  0  0  0  0  0
   -1.4225   26.0618    4.6794 N   0  0  0  0  0  0  0  0  0  0  0  0
   -0.2560   28.2386    7.2143 C   0  0  0  0  0  0  0  0  0  0  0  0
    0.5112   29.2854    6.4076 C   0  0  0  0  0  0  0  0  0  0  0  0
   -1.1317   28.8913    8.2830 C   0  0  0  0  0  0  0  0  0  0  0  0
   -4.7464   27.4149    3.5893 C   0  0  0  0  0  0  0  0  0  0  0  0
   -6.0521   27.9234    4.2382 C   0  0  0  0  0  0  0  0  0  0  0  0
   -6.3509   27.5041    5.6474 C   0  0  0  0  0  0  0  0  0  0  0  0
   -6.9121   28.4968    6.3466 C   0  0  0  0  0  0  0  0  0  0  0  0
   -7.0665   29.7358    5.5278 C   0  0  0  0  0  0  0  0  0  0  0  0
   -6.1870   29.4532    4.3079 C   0  0  0  0  0  0  0  0  0  0  0  0
  8  9  1  0  0  0
  9  2  1  0  0  0
  2  3  2  0  0  0
  3  4  1  0  0  0
  4  5  2  0  0  0
  5  6  1  0  0  0
  6  1  1  0  0  0
  1 10  1  0  0  0
 10 11  1  0  0  0
 11 12  2  0  0  0
 12 13  1  0  0  0
 13 16  1  0  0  0
 16 17  1  0  0  0
 16 18  1  0  0  0
 13 14  1  0  0  0
 14 15  2  0  0  0
  1 19  1  0  0  0
 19 20  1  0  0  0
 20 21  1  0  0  0
 21 22  2  0  0  0
 22 23  1  0  0  0
 23 24  1  0  0  0
  6  7  2  0  0  0
  7  2  1  0  0  0
 15 11  1  0  0  0
 24 20  1  0  0  0
M  END
> <minimizedAffinity>
-8.38255

$$$$
OCNT-2312062


 29 33  0  0  0  0  0  0  0  0999 V2000
   -4.2473   30.5199    7.8047 N   0  0  0  0  0  0  0  0  0  0  0  0
   -4.9294   31.3634    6.8312 C   0  0  0  0  0  0  0  0  0  0  0  0
   -6.2095   31.7772    7.5746 C   0  0  0  0  0  0  0  0  0  0  0  0
   -6.4412   30.6705    8.6178 C   0  0  0  0  0  0  0  0  0  0  0  0
   -5.2718   29.6896    8.4253 C   0  0  0  0  0  0  0  0  0  0  0  0
   -5.6125   28.5950    7.3938 C   0  0  0  0  0  0  0  0  0  0  0  0
   -6.0140   29.1557    5.9945 C   0  0  0  0  0  0  0  0  0  0  0  0
   -7.4025   29.5506    6.0657 O   0  0  0  0  0  0  0  0  0  0  0  0
   -5.2246   30.4493    5.6211 C   0  0  0  0  0  0  0  0  0  0  0  0
   -7.7698   29.4854    5.1655 H   0  0  0  0  0  0  0  0  0  0  0  0
   -2.6944   31.8395    9.0856 C   0  0  0  0  0  0  0  0  0  0  0  0
   -1.4076   32.0388    9.5587 C   0  0  0  0  0  0  0  0  0  0  0  0
   -0.3739   31.2144    9.3069 N   0  0  0  0  0  0  0  0  0  0  0  0
   -0.6136   30.1306    8.5499 C   0  0  0  0  0  0  0  0  0  0  0  0
    0.4244   29.2541    8.2700 C   0  0  0  0  0  0  0  0  0  0  0  0
    0.3378   28.1222    7.5280 N   0  0  0  0  0  0  0  0  0  0  0  0
   -0.8747   27.8437    7.0290 C   0  0  0  0  0  0  0  0  0  0  0  0
   -1.9862   28.6443    7.2405 C   0  0  0  0  0  0  0  0  0  0  0  0
   -1.8850   29.8224    8.0122 C   0  0  0  0  0  0  0  0  0  0  0  0
   -2.9709   30.7123    8.2857 C   0  0  0  0  0  0  0  0  0  0  0  0
   -4.4614   33.6259    9.7144 N   0  0  0  0  0  0  0  0  0  0  0  0
   -3.6846   32.8054    9.4459 C   0  0  0  0  0  0  0  0  0  0  0  0
   -5.9814   28.0281    4.9489 C   0  0  0  0  0  0  0  0  0  0  0  0
   -5.8361   28.2494    3.5705 C   0  0  0  0  0  0  0  0  0  0  0  0
   -5.8149   27.1818    2.6639 C   0  0  0  0  0  0  0  0  0  0  0  0
   -5.9432   25.8747    3.1205 C   0  0  0  0  0  0  0  0  0  0  0  0
   -5.9205   24.5680    2.0027 Cl  0  0  0  0  0  0  0  0  0  0  0  0
   -6.0920   25.6228    4.4785 C   0  0  0  0  0  0  0  0  0  0  0  0
   -6.1098   26.6894    5.3816 C   0  0  0  0  0  0  0  0  0  0  0  0
 21 22  3  0  0  0
 22 11  1  0  0  0
 11 12  1  0  0  0
 12 13  2  0  0  0
 13 14  1  0  0  0
 14 15  2  0  0  0
 15 16  1  0  0  0
 16 17  2  0  0  0
 17 18  1  0  0  0
 18 19  2  0  0  0
 19 20  1  0  0  0
 20  1  1  0  0  0
  1  2  1  0  0  0
  2  3  1  0  0  0
  3  4  1  0  0  0
  4  5  1  0  0  0
  5  6  1  0  0  0
  6  7  1  0  0  0
  7  8  1  0  0  0
  7 23  1  0  0  0
 23 24  1  0  0  0
 24 25  2  0  0  0
 25 26  1  0  0  0
 26 27  1  0  0  0
 26 28  2  0  0  0
 28 29  1  0  0  0
  7  9  1  0  0  0
 20 11  2  0  0  0
  5  1  1  0  0  0
 29 23  2  0  0  0
 19 14  1  0  0  0
  9  2  1  0  0  0
  8 10  1  0  0  0
M  END
> <minimizedAffinity>
-9.72698

$$$$
OCNT-2312063


 34 38  0  0  0  0  0  0  0  0999 V2000
   -5.4226   22.8932    3.9236 C   0  0  0  0  0  0  0  0  0  0  0  0
   -4.8264   22.6725    2.6712 C   0  0  0  0  0  0  0  0  0  0  0  0
   -4.3884   23.7467    1.8925 C   0  0  0  0  0  0  0  0  0  0  0  0
   -4.5632   25.0496    2.3478 C   0  0  0  0  0  0  0  0  0  0  0  0
   -4.1068   26.0601    1.5946 F   0  0  0  0  0  0  0  0  0  0  0  0
   -5.1964   25.2890    3.5633 C   0  0  0  0  0  0  0  0  0  0  0  0
   -5.6151   24.2138    4.3581 C   0  0  0  0  0  0  0  0  0  0  0  0
   -5.3803   26.6571    4.0794 C   0  0  0  0  0  0  0  0  0  0  0  0
   -6.2669   27.3365    3.5651 O   0  0  0  0  0  0  0  0  0  0  0  0
   -4.5352   27.1326    5.0732 N   0  0  0  0  0  0  0  0  0  0  0  0
   -4.7671   28.4775    5.6018 C   0  0  0  0  0  0  0  0  0  0  0  0
   -4.2289   28.6730    7.0316 C   0  0  0  0  0  0  0  0  0  0  0  0
   -2.8262   28.2394    7.1732 N   0  0  0  0  0  0  0  0  0  0  0  0
   -2.2538   27.4655    6.0613 C   0  0  0  0  0  0  0  0  0  0  0  0
   -3.2916   26.4750    5.5025 C   0  0  0  0  0  0  0  0  0  0  0  0
   -1.9383   29.0421    7.8845 C   0  0  0  0  0  0  0  0  0  0  0  0
   -0.5897   28.7333    7.9471 C   0  0  0  0  0  0  0  0  0  0  0  0
    0.2272   29.5894    8.6538 C   0  0  0  0  0  0  0  0  0  0  0  0
   -0.2156   30.6929    9.2726 N   0  0  0  0  0  0  0  0  0  0  0  0
   -1.5273   30.9215    9.1446 C   0  0  0  0  0  0  0  0  0  0  0  0
   -2.4063   30.1564    8.4784 N   0  0  0  0  0  0  0  0  0  0  0  0
   -5.8869   21.7372    4.7816 C   0  0  0  0  0  0  0  0  0  0  0  0
  -11.4016   21.4287    5.1527 O   0  0  0  0  0  0  0  0  0  0  0  0
  -10.1784   21.5075    5.1342 C   0  0  0  0  0  0  0  0  0  0  0  0
   -9.4546   21.4319    3.9700 N   0  0  0  0  0  0  0  0  0  0  0  0
   -8.1020   21.5060    3.8598 N   0  0  0  0  0  0  0  0  0  0  0  0
   -7.4001   21.6684    4.9439 C   0  0  0  0  0  0  0  0  0  0  0  0
   -8.0115   21.7737    6.2942 C   0  0  0  0  0  0  0  0  0  0  0  0
   -7.2711   21.9460    7.4697 C   0  0  0  0  0  0  0  0  0  0  0  0
   -7.9238   22.0271    8.7042 C   0  0  0  0  0  0  0  0  0  0  0  0
   -9.3136   21.9411    8.7726 C   0  0  0  0  0  0  0  0  0  0  0  0
  -10.0557   21.7734    7.6053 C   0  0  0  0  0  0  0  0  0  0  0  0
   -9.4005   21.6889    6.3703 C   0  0  0  0  0  0  0  0  0  0  0  0
   -9.9760   21.3096    3.1071 H   0  0  0  0  0  0  0  0  0  0  0  0
 23 24  2  0  0  0
 24 25  1  0  0  0
 25 26  1  0  0  0
 26 27  2  0  0  0
 27 22  1  0  0  0
 22  1  1  0  0  0
  1  2  1  0  0  0
  2  3  2  0  0  0
  3  4  1  0  0  0
  4  5  1  0  0  0
  4  6  2  0  0  0
  6  8  1  0  0  0
  8  9  2  0  0  0
  8 10  1  0  0  0
 10 11  1  0  0  0
 11 12  1  0  0  0
 12 13  1  0  0  0
 13 16  1  0  0  0
 16 17  1  0  0  0
 17 18  2  0  0  0
 18 19  1  0  0  0
 19 20  2  0  0  0
 20 21  1  0  0  0
 13 14  1  0  0  0
 14 15  1  0  0  0
  6  7  1  0  0  0
 27 28  1  0  0  0
 28 29  2  0  0  0
 29 30  1  0  0  0
 30 31  2  0  0  0
 31 32  1  0  0  0
 32 33  2  0  0  0
 33 24  1  0  0  0
  7  1  2  0  0  0
 33 28  1  0  0  0
 15 10  1  0  0  0
 21 16  2  0  0  0
 25 34  1  0  0  0
M  END
> <minimizedAffinity>
-10.39770

$$$$
OCNT-2312068


 27 30  0  0  0  0  0  0  0  0999 V2000
   -2.6639   26.0181    5.8616 C   0  0  0  0  0  0  0  0  0  0  0  0
   -3.5926   26.6842    4.9196 N   0  0  0  0  0  0  0  0  0  0  0  0
   -4.9439   26.8677    5.5014 C   0  0  0  0  0  0  0  0  0  0  0  0
   -5.8394   26.9297    4.3003 C   0  0  0  0  0  0  0  0  0  0  0  0
   -5.5139   27.7868    3.1024 C   0  0  0  0  0  0  0  0  0  0  0  0
   -5.1153   26.3121    3.1517 C   0  0  0  0  0  0  0  0  0  0  0  0
   -3.7494   25.8999    3.6760 C   0  0  0  0  0  0  0  0  0  0  0  0
   -5.7959   25.3530    2.2014 C   0  0  0  0  0  0  0  0  0  0  0  0
   -6.3767   24.1612    2.6669 C   0  0  0  0  0  0  0  0  0  0  0  0
   -7.0269   23.2767    1.7980 C   0  0  0  0  0  0  0  0  0  0  0  0
   -7.1112   23.5592    0.4283 C   0  0  0  0  0  0  0  0  0  0  0  0
   -7.8362   22.6352   -0.5062 C   0  0  0  0  0  0  0  0  0  0  0  0
   -6.5573   24.7509   -0.0493 C   0  0  0  0  0  0  0  0  0  0  0  0
   -5.9058   25.6287    0.8255 C   0  0  0  0  0  0  0  0  0  0  0  0
   -1.7358   27.5885    7.4772 N   0  0  0  0  0  0  0  0  0  0  0  0
   -1.5263   26.9652    6.2600 C   0  0  0  0  0  0  0  0  0  0  0  0
   -0.5614   27.1847    5.5235 O   0  0  0  0  0  0  0  0  0  0  0  0
   -2.4910   27.2104    8.0440 H   0  0  0  0  0  0  0  0  0  0  0  0
   -0.7860   28.5019    8.0592 C   0  0  0  0  0  0  0  0  0  0  0  0
   -3.5859   30.8301    9.2187 C   0  0  0  0  0  0  0  0  0  0  0  0
   -2.8618   31.9465    9.6424 C   0  0  0  0  0  0  0  0  0  0  0  0
   -1.4652   31.9534    9.5476 C   0  0  0  0  0  0  0  0  0  0  0  0
   -0.7839   30.8465    9.0270 C   0  0  0  0  0  0  0  0  0  0  0  0
   -1.4964   29.7242    8.5870 C   0  0  0  0  0  0  0  0  0  0  0  0
   -2.8988   29.7283    8.6906 C   0  0  0  0  0  0  0  0  0  0  0  0
   -5.4543   29.4465    9.7662 C   0  0  0  0  0  0  0  0  0  0  0  0
   -4.9471   30.6876    9.2668 O   0  0  0  0  0  0  0  0  0  0  0  0
 26 27  1  0  0  0
 27 20  1  0  0  0
 20 21  1  0  0  0
 21 22  2  0  0  0
 22 23  1  0  0  0
 23 24  2  0  0  0
 24 19  1  0  0  0
 19 15  1  0  0  0
 15 16  1  0  0  0
 16 17  2  0  0  0
 16  1  1  0  0  0
  1  2  1  0  0  0
  2  3  1  0  0  0
  3  4  1  0  0  0
  4  5  1  0  0  0
  5  6  1  0  0  0
  6  8  1  0  0  0
  8  9  1  0  0  0
  9 10  2  0  0  0
 10 11  1  0  0  0
 11 12  1  0  0  0
 11 13  2  0  0  0
 13 14  1  0  0  0
  6  7  1  0  0  0
 24 25  1  0  0  0
 25 20  2  0  0  0
  7  2  1  0  0  0
  6  4  1  0  0  0
 14  8  2  0  0  0
 15 18  1  0  0  0
M  END
> <minimizedAffinity>
-10.13235

$$$$
OCNT-2312069


 25 28  0  0  0  0  0  0  0  0999 V2000
   -4.1009   24.5038    3.4024 C   0  0  0  0  0  0  0  0  0  0  0  0
   -7.2866   23.4156    6.3448 O   0  0  0  0  0  0  0  0  0  0  0  0
   -7.0879   23.6156    4.9326 C   0  0  0  0  0  0  0  0  0  0  0  0
   -5.8854   22.8714    4.3189 C   0  0  0  0  0  0  0  0  0  0  0  0
   -5.6022   24.1413    3.4369 C   0  0  0  0  0  0  0  0  0  0  0  0
   -6.3969   24.9338    4.5331 C   0  0  0  0  0  0  0  0  0  0  0  0
   -7.6934   22.5349    6.4197 H   0  0  0  0  0  0  0  0  0  0  0  0
   -6.2127   24.1128    1.9353 C   0  0  0  0  0  0  0  0  0  0  0  0
   -6.9481   23.0099    1.4497 C   0  0  0  0  0  0  0  0  0  0  0  0
   -7.4816   22.9755    0.1566 C   0  0  0  0  0  0  0  0  0  0  0  0
   -7.2860   24.0482   -0.7030 C   0  0  0  0  0  0  0  0  0  0  0  0
   -6.5503   25.1444   -0.2699 C   0  0  0  0  0  0  0  0  0  0  0  0
   -6.0244   25.1721    1.0261 C   0  0  0  0  0  0  0  0  0  0  0  0
   -3.8793   25.9027    3.7424 N   0  0  0  0  0  0  0  0  0  0  0  0
   -3.9945   26.5375    2.9382 H   0  0  0  0  0  0  0  0  0  0  0  0
   -2.8961   26.3977    4.6019 C   0  0  0  0  0  0  0  0  0  0  0  0
   -1.6172   25.9865    4.6390 C   0  0  0  0  0  0  0  0  0  0  0  0
   -0.7411   26.6161    5.6615 C   0  0  0  0  0  0  0  0  0  0  0  0
   -1.0869   27.5259    6.5199 N   0  0  0  0  0  0  0  0  0  0  0  0
   -2.3907   27.9365    6.4557 C   0  0  0  0  0  0  0  0  0  0  0  0
   -3.1189   28.8510    7.1758 C   0  0  0  0  0  0  0  0  0  0  0  0
   -2.5490   29.9411    8.5818 Br  0  0  0  0  0  0  0  0  0  0  0  0
   -4.4147   28.8260    6.6564 C   0  0  0  0  0  0  0  0  0  0  0  0
   -4.5434   27.9517    5.6556 N   0  0  0  0  0  0  0  0  0  0  0  0
   -3.2966   27.3963    5.5334 N   0  0  0  0  0  0  0  0  0  0  0  0
  2  3  1  0  0  0
  3  4  1  0  0  0
  4  5  1  0  0  0
  5  1  1  0  0  0
  1 14  1  0  0  0
 14 16  1  0  0  0
 16 17  2  0  0  0
 17 18  1  0  0  0
 18 19  2  0  0  0
 19 20  1  0  0  0
 20 21  2  0  0  0
 21 22  1  0  0  0
 21 23  1  0  0  0
 23 24  2  0  0  0
 24 25  1  0  0  0
  5  8  1  0  0  0
  8  9  2  0  0  0
  9 10  1  0  0  0
 10 11  2  0  0  0
 11 12  1  0  0  0
 12 13  2  0  0  0
  5  6  1  0  0  0
  6  3  1  0  0  0
 25 16  1  0  0  0
 13  8  1  0  0  0
 25 20  1  0  0  0
  2  7  1  0  0  0
 14 15  1  0  0  0
M  END
> <minimizedAffinity>
-9.00392

$$$$
OCNT-2312089


 27 31  0  0  0  0  0  0  0  0999 V2000
   -0.5532   27.1875    6.0264 C   0  0  0  0  0  0  0  0  0  0  0  0
   -1.8237   26.7900    5.3606 C   0  0  0  0  0  0  0  0  0  0  0  0
   -3.1163   27.2272    5.5778 C   0  0  0  0  0  0  0  0  0  0  0  0
   -4.0812   26.6425    4.7705 N   0  0  0  0  0  0  0  0  0  0  0  0
   -3.5359   25.7653    3.9491 C   0  0  0  0  0  0  0  0  0  0  0  0
   -1.8267   25.6170    4.1114 S   0  0  0  0  0  0  0  0  0  0  0  0
   -4.3068   24.9826    2.9588 C   0  0  0  0  0  0  0  0  0  0  0  0
   -4.3683   23.5662    2.9633 C   0  0  0  0  0  0  0  0  0  0  0  0
   -5.1121   22.8612    2.0063 C   0  0  0  0  0  0  0  0  0  0  0  0
   -5.7884   23.5890    1.0550 C   0  0  0  0  0  0  0  0  0  0  0  0
   -6.5548   23.0774    0.0562 O   0  0  0  0  0  0  0  0  0  0  0  0
   -6.9914   24.2876   -0.5972 C   0  0  0  0  0  0  0  0  0  0  0  0
   -6.4792   25.4878    0.0184 O   0  0  0  0  0  0  0  0  0  0  0  0
   -5.7448   24.9607    1.0346 C   0  0  0  0  0  0  0  0  0  0  0  0
   -5.0212   25.6794    1.9642 C   0  0  0  0  0  0  0  0  0  0  0  0
   -3.5615   28.2244    6.5506 C   0  0  0  0  0  0  0  0  0  0  0  0
   -4.4879   29.2274    6.3827 C   0  0  0  0  0  0  0  0  0  0  0  0
   -4.5071   29.8565    7.5894 N   0  0  0  0  0  0  0  0  0  0  0  0
   -3.6621   29.2734    8.4616 N   0  0  0  0  0  0  0  0  0  0  0  0
   -3.0668   28.2715    7.8264 N   0  0  0  0  0  0  0  0  0  0  0  0
   -5.3070   30.9941    7.9859 C   0  0  0  0  0  0  0  0  0  0  0  0
   -4.5698   32.3454    7.9657 C   0  0  0  0  0  0  0  0  0  0  0  0
   -3.9825   32.7644    9.3192 C   0  0  0  0  0  0  0  0  0  0  0  0
   -4.5694   34.1383    9.5900 C   0  0  0  0  0  0  0  0  0  0  0  0
   -4.8892   34.6612    8.2069 C   0  0  0  0  0  0  0  0  0  0  0  0
   -5.3968   33.4816    7.5006 N   0  0  0  0  0  0  0  0  0  0  0  0
   -6.3665   33.3244    7.8065 H   0  0  0  0  0  0  0  0  0  0  0  0
  1  2  1  0  0  0
  2  3  2  0  0  0
  3 16  1  0  0  0
 16 17  2  0  0  0
 17 18  1  0  0  0
 18 21  1  0  0  0
 21 22  1  0  0  0
 22 23  1  0  0  0
 23 24  1  0  0  0
 24 25  1  0  0  0
 25 26  1  0  0  0
 18 19  1  0  0  0
 19 20  2  0  0  0
  3  4  1  0  0  0
  4  5  2  0  0  0
  5  7  1  0  0  0
  7  8  1  0  0  0
  8  9  2  0  0  0
  9 10  1  0  0  0
 10 11  1  0  0  0
 11 12  1  0  0  0
 12 13  1  0  0  0
 13 14  1  0  0  0
 14 15  1  0  0  0
  5  6  1  0  0  0
  6  2  1  0  0  0
 20 16  1  0  0  0
 15  7  2  0  0  0
 26 22  1  0  0  0
 14 10  2  0  0  0
 26 27  1  0  0  0
M  END
> <minimizedAffinity>
-9.48105

$$$$
OCNT-2312094


 27 30  0  0  0  0  0  0  0  0999 V2000
   -4.6792   28.2600    4.4183 N   0  0  0  0  0  0  0  0  0  0  0  0
   -5.0614   28.7610    3.6216 H   0  0  0  0  0  0  0  0  0  0  0  0
   -5.2059   29.2902    7.7491 C   0  0  0  0  0  0  0  0  0  0  0  0
   -6.4279   29.9198    7.7352 C   0  0  0  0  0  0  0  0  0  0  0  0
   -7.0435   29.9476    6.5135 C   0  0  0  0  0  0  0  0  0  0  0  0
   -6.5043   29.4159    5.4017 N   0  0  0  0  0  0  0  0  0  0  0  0
   -5.3016   28.8359    5.5184 C   0  0  0  0  0  0  0  0  0  0  0  0
   -4.6156   28.7642    6.6614 N   0  0  0  0  0  0  0  0  0  0  0  0
   -4.4665   29.2348    8.9136 O   0  0  0  0  0  0  0  0  0  0  0  0
   -1.3304   31.9655    9.1293 C   0  0  0  0  0  0  0  0  0  0  0  0
   -2.6380   32.3488    9.4287 C   0  0  0  0  0  0  0  0  0  0  0  0
   -3.6728   31.4161    9.3515 C   0  0  0  0  0  0  0  0  0  0  0  0
   -3.3953   30.0970    8.9894 C   0  0  0  0  0  0  0  0  0  0  0  0
   -2.0899   29.7175    8.6653 C   0  0  0  0  0  0  0  0  0  0  0  0
   -1.0569   30.6527    8.7434 C   0  0  0  0  0  0  0  0  0  0  0  0
   -4.7401   26.8012    4.3403 C   0  0  0  0  0  0  0  0  0  0  0  0
   -3.3446   26.2146    4.0864 C   0  0  0  0  0  0  0  0  0  0  0  0
   -3.3923   25.0212    3.1454 C   0  0  0  0  0  0  0  0  0  0  0  0
   -4.5401   24.2258    3.4202 O   0  0  0  0  0  0  0  0  0  0  0  0
   -5.7820   24.8732    3.0985 C   0  0  0  0  0  0  0  0  0  0  0  0
   -5.6894   26.4053    3.2069 C   0  0  0  0  0  0  0  0  0  0  0  0
   -6.3427   24.4040    1.7616 C   0  0  0  0  0  0  0  0  0  0  0  0
   -6.8772   23.1098    1.6353 C   0  0  0  0  0  0  0  0  0  0  0  0
   -7.3850   22.6570    0.4150 C   0  0  0  0  0  0  0  0  0  0  0  0
   -7.3576   23.4862   -0.7028 C   0  0  0  0  0  0  0  0  0  0  0  0
   -6.8166   24.7649   -0.6023 C   0  0  0  0  0  0  0  0  0  0  0  0
   -6.3090   25.2178    0.6180 C   0  0  0  0  0  0  0  0  0  0  0  0
 10 11  2  0  0  0
 11 12  1  0  0  0
 12 13  2  0  0  0
 13  9  1  0  0  0
  9  3  1  0  0  0
  3  4  1  0  0  0
  4  5  2  0  0  0
  5  6  1  0  0  0
  6  7  2  0  0  0
  7  1  1  0  0  0
  1 16  1  0  0  0
 16 17  1  0  0  0
 17 18  1  0  0  0
 18 19  1  0  0  0
 19 20  1  0  0  0
 20 22  1  0  0  0
 22 23  2  0  0  0
 23 24  1  0  0  0
 24 25  2  0  0  0
 25 26  1  0  0  0
 26 27  2  0  0  0
 20 21  1  0  0  0
  7  8  1  0  0  0
 13 14  1  0  0  0
 14 15  2  0  0  0
 15 10  1  0  0  0
  8  3  2  0  0  0
 21 16  1  0  0  0
 27 22  1  0  0  0
  1  2  1  0  0  0
M  END
> <minimizedAffinity>
-10.21697

$$$$
OCNT-2312095


 24 27  0  0  0  0  0  0  0  0999 V2000
   -5.7788   29.0479    6.4263 C   0  0  0  0  0  0  0  0  0  0  0  0
   -4.6757   28.2275    5.9943 N   0  0  0  0  0  0  0  0  0  0  0  0
   -3.3735   28.3315    6.4255 C   0  0  0  0  0  0  0  0  0  0  0  0
   -2.6963   27.2977    5.9725 N   0  0  0  0  0  0  0  0  0  0  0  0
   -3.5524   26.5240    5.2326 N   0  0  0  0  0  0  0  0  0  0  0  0
   -4.7268   27.1175    5.1825 C   0  0  0  0  0  0  0  0  0  0  0  0
   -5.8575   26.7092    4.5324 N   0  0  0  0  0  0  0  0  0  0  0  0
   -6.4581   25.4480    4.9922 C   0  0  0  0  0  0  0  0  0  0  0  0
   -5.6695   24.1967    4.5979 C   0  0  0  0  0  0  0  0  0  0  0  0
   -6.3155   23.3738    3.4857 C   0  0  0  0  0  0  0  0  0  0  0  0
   -6.4788   23.8696    2.0636 C   0  0  0  0  0  0  0  0  0  0  0  0
   -7.2461   23.0088    1.2388 C   0  0  0  0  0  0  0  0  0  0  0  0
   -7.4801   23.2789   -0.1070 C   0  0  0  0  0  0  0  0  0  0  0  0
   -6.9470   24.4232   -0.6715 C   0  0  0  0  0  0  0  0  0  0  0  0
   -6.1859   25.2868    0.1140 C   0  0  0  0  0  0  0  0  0  0  0  0
   -5.9352   25.0295    1.4818 C   0  0  0  0  0  0  0  0  0  0  0  0
   -5.1125   26.0654    2.2177 C   0  0  0  0  0  0  0  0  0  0  0  0
   -5.9830   26.9806    3.0927 C   0  0  0  0  0  0  0  0  0  0  0  0
   -2.8311   29.4168    7.2931 C   0  0  0  0  0  0  0  0  0  0  0  0
   -1.3363   29.3508    7.4631 C   0  0  0  0  0  0  0  0  0  0  0  0
   -0.6917   29.0634    8.6530 C   0  0  0  0  0  0  0  0  0  0  0  0
    1.0119   29.0666    8.5047 S   0  0  0  0  0  0  0  0  0  0  0  0
    0.9209   29.4345    6.8389 C   0  0  0  0  0  0  0  0  0  0  0  0
   -0.3814   29.5567    6.4096 C   0  0  0  0  0  0  0  0  0  0  0  0
  1  2  1  0  0  0
  2  3  1  0  0  0
  3 19  1  0  0  0
 19 20  1  0  0  0
 20 21  2  0  0  0
 21 22  1  0  0  0
 22 23  1  0  0  0
 23 24  2  0  0  0
  3  4  2  0  0  0
  4  5  1  0  0  0
  5  6  2  0  0  0
  6  7  1  0  0  0
  7  8  1  0  0  0
  8  9  1  0  0  0
  9 10  1  0  0  0
 10 11  1  0  0  0
 11 12  2  0  0  0
 12 13  1  0  0  0
 13 14  2  0  0  0
 14 15  1  0  0  0
 15 16  2  0  0  0
 16 17  1  0  0  0
 17 18  1  0  0  0
  6  2  1  0  0  0
 18  7  1  0  0  0
 24 20  1  0  0  0
 16 11  1  0  0  0
M  END
> <minimizedAffinity>
-9.63734

$$$$
OCNT-2312098


 28 31  0  0  0  0  0  0  0  0999 V2000
   -3.9054   26.2999    5.4559 N   0  0  0  0  0  0  0  0  0  0  0  0
   -2.8200   26.3394    4.4674 C   0  0  0  0  0  0  0  0  0  0  0  0
   -3.3444   26.4351    3.0328 C   0  0  0  0  0  0  0  0  0  0  0  0
   -4.5448   25.4948    2.7615 C   0  0  0  0  0  0  0  0  0  0  0  0
   -5.7193   26.3138    2.6205 O   0  0  0  0  0  0  0  0  0  0  0  0
   -4.7591   24.5143    3.9236 C   0  0  0  0  0  0  0  0  0  0  0  0
   -4.8918   25.2228    5.2722 C   0  0  0  0  0  0  0  0  0  0  0  0
   -5.7670   26.8867    3.4172 H   0  0  0  0  0  0  0  0  0  0  0  0
   -1.8108   29.3694    7.6497 C   0  0  0  0  0  0  0  0  0  0  0  0
   -2.4227   30.6170    7.7295 C   0  0  0  0  0  0  0  0  0  0  0  0
   -3.6828   30.8209    7.1556 C   0  0  0  0  0  0  0  0  0  0  0  0
   -4.3552   29.8096    6.4827 C   0  0  0  0  0  0  0  0  0  0  0  0
   -5.5604   30.0708    5.9696 N   0  0  0  0  0  0  0  0  0  0  0  0
   -6.1707   29.0666    5.3325 C   0  0  0  0  0  0  0  0  0  0  0  0
   -5.6872   27.8316    5.1471 N   0  0  0  0  0  0  0  0  0  0  0  0
   -4.4684   27.5798    5.6661 C   0  0  0  0  0  0  0  0  0  0  0  0
   -3.7384   28.5574    6.3704 C   0  0  0  0  0  0  0  0  0  0  0  0
   -2.4659   28.3475    6.9628 C   0  0  0  0  0  0  0  0  0  0  0  0
    0.8517   29.3543    6.9274 C   0  0  0  0  0  0  0  0  0  0  0  0
   -0.2053   29.1401    8.3854 S   0  0  0  0  0  0  0  0  0  0  0  0
   -4.3221   24.7668    1.4088 C   0  0  0  0  0  0  0  0  0  0  0  0
   -5.5560   24.1724    0.7692 C   0  0  0  0  0  0  0  0  0  0  0  0
   -6.3749   24.9434   -0.0665 C   0  0  0  0  0  0  0  0  0  0  0  0
   -7.5149   24.3869   -0.6523 C   0  0  0  0  0  0  0  0  0  0  0  0
   -7.8502   23.0549   -0.4092 C   0  0  0  0  0  0  0  0  0  0  0  0
   -7.0461   22.2796    0.4238 C   0  0  0  0  0  0  0  0  0  0  0  0
   -5.9122   22.8410    1.0045 C   0  0  0  0  0  0  0  0  0  0  0  0
   -5.1597   22.0808    1.8139 F   0  0  0  0  0  0  0  0  0  0  0  0
 19 20  1  0  0  0
 20  9  1  0  0  0
  9 10  1  0  0  0
 10 11  2  0  0  0
 11 12  1  0  0  0
 12 13  2  0  0  0
 13 14  1  0  0  0
 14 15  2  0  0  0
 15 16  1  0  0  0
 16  1  1  0  0  0
  1  2  1  0  0  0
  2  3  1  0  0  0
  3  4  1  0  0  0
  4  5  1  0  0  0
  4 21  1  0  0  0
 21 22  1  0  0  0
 22 23  2  0  0  0
 23 24  1  0  0  0
 24 25  2  0  0  0
 25 26  1  0  0  0
 26 27  2  0  0  0
 27 28  1  0  0  0
  4  6  1  0  0  0
  6  7  1  0  0  0
 16 17  2  0  0  0
 17 18  1  0  0  0
 18  9  2  0  0  0
 17 12  1  0  0  0
  7  1  1  0  0  0
 27 22  1  0  0  0
  5  8  1  0  0  0
M  END
> <minimizedAffinity>
-9.87704

$$$$
OCNT-2312102


 35 40  0  0  0  0  0  0  0  0999 V2000
   -1.8177   27.0749    6.4974 N   0  0  0  0  0  0  0  0  0  0  0  0
   -2.7501   26.6905    5.5809 C   0  0  0  0  0  0  0  0  0  0  0  0
   -2.0575   26.1638    4.5059 C   0  0  0  0  0  0  0  0  0  0  0  0
   -0.6793   26.3136    4.8703 C   0  0  0  0  0  0  0  0  0  0  0  0
   -0.5566   26.8275    6.1042 N   0  0  0  0  0  0  0  0  0  0  0  0
    0.5110   25.9670    4.1084 C   0  0  0  0  0  0  0  0  0  0  0  0
    1.2091   24.7779    4.3259 C   0  0  0  0  0  0  0  0  0  0  0  0
    2.3521   24.5030    3.5770 C   0  0  0  0  0  0  0  0  0  0  0  0
    2.7576   25.4294    2.6290 C   0  0  0  0  0  0  0  0  0  0  0  0
    2.1043   26.5844    2.3811 N   0  0  0  0  0  0  0  0  0  0  0  0
    0.9888   26.8192    3.1179 C   0  0  0  0  0  0  0  0  0  0  0  0
   -2.0719   27.6481    7.8132 C   0  0  0  0  0  0  0  0  0  0  0  0
   -1.7881   31.9532    7.7823 C   0  0  0  0  0  0  0  0  0  0  0  0
   -1.0904   31.2152    8.7362 C   0  0  0  0  0  0  0  0  0  0  0  0
   -1.1822   29.8229    8.7463 C   0  0  0  0  0  0  0  0  0  0  0  0
   -1.9721   29.1535    7.7988 C   0  0  0  0  0  0  0  0  0  0  0  0
   -2.6712   29.9076    6.8447 C   0  0  0  0  0  0  0  0  0  0  0  0
   -2.5780   31.3005    6.8376 C   0  0  0  0  0  0  0  0  0  0  0  0
   -2.6476   25.6065    3.2493 C   0  0  0  0  0  0  0  0  0  0  0  0
   -3.8305   24.7655    3.4517 N   0  0  0  0  0  0  0  0  0  0  0  0
   -3.6523   23.3704    3.0464 C   0  0  0  0  0  0  0  0  0  0  0  0
   -4.8916   22.5411    3.2314 C   0  0  0  0  0  0  0  0  0  0  0  0
   -6.1081   23.0692    3.4584 C   0  0  0  0  0  0  0  0  0  0  0  0
   -6.2893   24.5681    3.5060 C   0  0  0  0  0  0  0  0  0  0  0  0
   -5.0784   25.3252    2.9281 C   0  0  0  0  0  0  0  0  0  0  0  0
   -7.3019   22.2948    3.5994 C   0  0  0  0  0  0  0  0  0  0  0  0
   -7.6843   21.3025    2.7149 C   0  0  0  0  0  0  0  0  0  0  0  0
   -8.8769   20.7857    3.1499 N   0  0  0  0  0  0  0  0  0  0  0  0
   -9.2643   21.4142    4.3003 C   0  0  0  0  0  0  0  0  0  0  0  0
  -10.3923   21.1231    4.9750 N   0  0  0  0  0  0  0  0  0  0  0  0
  -10.5458   21.8746    6.0884 C   0  0  0  0  0  0  0  0  0  0  0  0
   -9.6648   22.8499    6.5359 C   0  0  0  0  0  0  0  0  0  0  0  0
   -8.5101   23.1095    5.7960 C   0  0  0  0  0  0  0  0  0  0  0  0
   -8.2994   22.3663    4.6201 C   0  0  0  0  0  0  0  0  0  0  0  0
   -9.4108   20.0506    2.7108 H   0  0  0  0  0  0  0  0  0  0  0  0
 13 14  2  0  0  0
 14 15  1  0  0  0
 15 16  2  0  0  0
 16 12  1  0  0  0
 12  1  1  0  0  0
  1  2  1  0  0  0
  2  3  2  0  0  0
  3 19  1  0  0  0
 19 20  1  0  0  0
 20 21  1  0  0  0
 21 22  1  0  0  0
 22 23  2  0  0  0
 23 26  1  0  0  0
 26 27  2  0  0  0
 27 28  1  0  0  0
 28 29  1  0  0  0
 29 30  1  0  0  0
 30 31  2  0  0  0
 31 32  1  0  0  0
 32 33  2  0  0  0
 33 34  1  0  0  0
 23 24  1  0  0  0
 24 25  1  0  0  0
  3  4  1  0  0  0
  4  6  1  0  0  0
  6  7  1  0  0  0
  7  8  2  0  0  0
  8  9  1  0  0  0
  9 10  2  0  0  0
 10 11  1  0  0  0
  4  5  2  0  0  0
 16 17  1  0  0  0
 17 18  2  0  0  0
 18 13  1  0  0  0
  5  1  1  0  0  0
 25 20  1  0  0  0
 11  6  2  0  0  0
 34 26  1  0  0  0
 34 29  2  0  0  0
 28 35  1  0  0  0
M  END
> <minimizedAffinity>
-10.57045

$$$$
OCNT-2312103


 25 27  0  0  0  0  0  0  0  0999 V2000
   -5.5421   26.6976    2.6938 N   0  0  0  0  0  0  0  0  0  0  0  0
   -6.4348   26.7015    2.1978 H   0  0  0  0  0  0  0  0  0  0  0  0
   -5.7852   26.5781    4.1316 C   0  0  0  0  0  0  0  0  0  0  0  0
   -4.6883   25.7408    4.8057 C   0  0  0  0  0  0  0  0  0  0  0  0
   -1.9493   26.0371    4.4909 O   0  0  0  0  0  0  0  0  0  0  0  0
   -2.4784   26.5914    5.4478 C   0  0  0  0  0  0  0  0  0  0  0  0
   -3.8428   26.5521    5.6685 N   0  0  0  0  0  0  0  0  0  0  0  0
   -4.1429   26.6348    6.6295 H   0  0  0  0  0  0  0  0  0  0  0  0
   -1.7301   27.3077    6.4481 C   0  0  0  0  0  0  0  0  0  0  0  0
   -2.1707   27.8666    7.6331 C   0  0  0  0  0  0  0  0  0  0  0  0
   -1.0284   28.4320    8.2246 C   0  0  0  0  0  0  0  0  0  0  0  0
    0.0679   28.2373    7.4895 N   0  0  0  0  0  0  0  0  0  0  0  0
   -0.3784   27.5223    6.4438 N   0  0  0  0  0  0  0  0  0  0  0  0
    0.2993   27.1948    5.7644 H   0  0  0  0  0  0  0  0  0  0  0  0
   -4.7243   25.6040    2.1606 C   0  0  0  0  0  0  0  0  0  0  0  0
   -5.5291   24.5361    1.4542 C   0  0  0  0  0  0  0  0  0  0  0  0
   -6.3124   24.8843    0.3321 C   0  0  0  0  0  0  0  0  0  0  0  0
   -7.0620   23.9356   -0.3614 C   0  0  0  0  0  0  0  0  0  0  0  0
   -7.0641   22.5974    0.0311 C   0  0  0  0  0  0  0  0  0  0  0  0
   -6.2909   22.2497    1.1431 C   0  0  0  0  0  0  0  0  0  0  0  0
   -5.5319   23.1770    1.8593 C   0  0  0  0  0  0  0  0  0  0  0  0
   -4.8937   22.4567    2.9126 C   0  0  0  0  0  0  0  0  0  0  0  0
   -5.2670   21.1367    2.8133 C   0  0  0  0  0  0  0  0  0  0  0  0
   -6.1106   21.0225    1.7419 N   0  0  0  0  0  0  0  0  0  0  0  0
   -6.5442   20.1647    1.4300 H   0  0  0  0  0  0  0  0  0  0  0  0
  5  6  2  0  0  0
  6  7  1  0  0  0
  7  4  1  0  0  0
  4  3  1  0  0  0
  3  1  1  0  0  0
  1 15  1  0  0  0
 15 16  1  0  0  0
 16 17  1  0  0  0
 17 18  2  0  0  0
 18 19  1  0  0  0
 19 20  2  0  0  0
 20 21  1  0  0  0
 21 22  1  0  0  0
 22 23  2  0  0  0
 23 24  1  0  0  0
  6  9  1  0  0  0
  9 10  2  0  0  0
 10 11  1  0  0  0
 11 12  2  0  0  0
 12 13  1  0  0  0
 21 16  2  0  0  0
 13  9  1  0  0  0
 24 20  1  0  0  0
  7  8  1  0  0  0
  1  2  1  0  0  0
 24 25  1  0  0  0
 13 14  1  0  0  0
M  END
> <minimizedAffinity>
-8.04453

$$$$
OCNT-2312104


 30 34  0  0  0  0  0  0  0  0999 V2000
   -1.2748   27.5450    7.9189 O   0  0  0  0  0  0  0  0  0  0  0  0
   -1.9508   28.1819    7.1155 C   0  0  0  0  0  0  0  0  0  0  0  0
   -2.5544   27.5832    6.0334 N   0  0  0  0  0  0  0  0  0  0  0  0
   -3.2504   28.1075    5.5268 H   0  0  0  0  0  0  0  0  0  0  0  0
   -2.1925   29.6110    7.2337 C   0  0  0  0  0  0  0  0  0  0  0  0
   -1.3841   30.6913    6.8857 C   0  0  0  0  0  0  0  0  0  0  0  0
   -2.0499   31.8949    7.2301 C   0  0  0  0  0  0  0  0  0  0  0  0
   -3.2474   31.5315    7.7903 C   0  0  0  0  0  0  0  0  0  0  0  0
   -3.3372   30.1654    7.7689 N   0  0  0  0  0  0  0  0  0  0  0  0
   -4.5074   29.4720    8.2853 C   0  0  0  0  0  0  0  0  0  0  0  0
   -5.6977   30.4289    8.4518 C   0  0  0  0  0  0  0  0  0  0  0  0
   -5.3487   31.6796    9.1518 N   0  0  0  0  0  0  0  0  0  0  0  0
   -4.3696   32.4352    8.3483 C   0  0  0  0  0  0  0  0  0  0  0  0
   -5.1024   33.3655    7.3584 C   0  0  0  0  0  0  0  0  0  0  0  0
   -5.1070   34.4559    8.4518 C   0  0  0  0  0  0  0  0  0  0  0  0
   -3.9535   33.6956    9.1416 C   0  0  0  0  0  0  0  0  0  0  0  0
   -4.9792   31.4390   10.0720 H   0  0  0  0  0  0  0  0  0  0  0  0
   -2.5336   26.1527    5.8423 C   0  0  0  0  0  0  0  0  0  0  0  0
   -3.4439   25.7492    4.7112 C   0  0  0  0  0  0  0  0  0  0  0  0
   -3.0795   26.0079    3.3844 C   0  0  0  0  0  0  0  0  0  0  0  0
   -3.9091   25.6161    2.3293 C   0  0  0  0  0  0  0  0  0  0  0  0
   -5.1208   24.9497    2.5697 C   0  0  0  0  0  0  0  0  0  0  0  0
   -5.4732   24.6860    3.9030 C   0  0  0  0  0  0  0  0  0  0  0  0
   -4.6458   25.0772    4.9612 C   0  0  0  0  0  0  0  0  0  0  0  0
   -5.9931   24.5384    1.4586 C   0  0  0  0  0  0  0  0  0  0  0  0
   -6.7071   23.3353    1.5056 C   0  0  0  0  0  0  0  0  0  0  0  0
   -7.5149   22.9889    0.4334 C   0  0  0  0  0  0  0  0  0  0  0  0
   -7.6640   23.7487   -0.6709 N   0  0  0  0  0  0  0  0  0  0  0  0
   -6.9732   24.9065   -0.7028 C   0  0  0  0  0  0  0  0  0  0  0  0
   -6.1388   25.3362    0.3176 C   0  0  0  0  0  0  0  0  0  0  0  0
  1  2  2  0  0  0
  2  3  1  0  0  0
  3 18  1  0  0  0
 18 19  1  0  0  0
 19 20  1  0  0  0
 20 21  2  0  0  0
 21 22  1  0  0  0
 22 25  1  0  0  0
 25 26  2  0  0  0
 26 27  1  0  0  0
 27 28  2  0  0  0
 28 29  1  0  0  0
 29 30  2  0  0  0
 22 23  2  0  0  0
 23 24  1  0  0  0
  2  5  1  0  0  0
  5  6  2  0  0  0
  6  7  1  0  0  0
  7  8  2  0  0  0
  8  9  1  0  0  0
  9 10  1  0  0  0
 10 11  1  0  0  0
 11 12  1  0  0  0
 12 13  1  0  0  0
 13 14  1  0  0  0
 14 15  1  0  0  0
 15 16  1  0  0  0
 24 19  2  0  0  0
  9  5  1  0  0  0
 16 13  1  0  0  0
 30 25  1  0  0  0
 13  8  1  0  0  0
  3  4  1  0  0  0
 12 17  1  0  0  0
M  END
> <minimizedAffinity>
-10.59650

$$$$
OCNT-2312108


 29 32  0  0  0  0  0  0  0  0999 V2000
   -6.1390   28.0245    6.8937 N   0  0  0  0  0  0  0  0  0  0  0  0
   -6.8329   27.3173    7.1214 H   0  0  0  0  0  0  0  0  0  0  0  0
   -5.6777   25.0667    2.7167 C   0  0  0  0  0  0  0  0  0  0  0  0
   -5.6916   24.7835    4.0771 C   0  0  0  0  0  0  0  0  0  0  0  0
   -5.8246   25.8127    5.0096 C   0  0  0  0  0  0  0  0  0  0  0  0
   -5.9513   27.1614    4.6022 C   0  0  0  0  0  0  0  0  0  0  0  0
   -5.9071   27.4391    3.2153 C   0  0  0  0  0  0  0  0  0  0  0  0
   -5.7784   26.3943    2.3064 C   0  0  0  0  0  0  0  0  0  0  0  0
   -5.9738   28.6826    2.7205 N   0  0  0  0  0  0  0  0  0  0  0  0
   -6.0578   29.7024    3.5934 C   0  0  0  0  0  0  0  0  0  0  0  0
   -6.1173   29.5438    4.9647 C   0  0  0  0  0  0  0  0  0  0  0  0
   -6.1115   28.2567    5.5039 C   0  0  0  0  0  0  0  0  0  0  0  0
   -5.5423   23.9717    1.9119 O   0  0  0  0  0  0  0  0  0  0  0  0
   -7.2863   23.6786    0.2564 C   0  0  0  0  0  0  0  0  0  0  0  0
   -6.7009   23.1981    1.5810 C   0  0  0  0  0  0  0  0  0  0  0  0
   -6.2362   21.7490    1.4497 C   0  0  0  0  0  0  0  0  0  0  0  0
   -6.1702   29.1165    7.8636 C   0  0  0  0  0  0  0  0  0  0  0  0
   -4.7897   29.6019    8.2599 C   0  0  0  0  0  0  0  0  0  0  0  0
   -4.5986   30.8877    8.8399 C   0  0  0  0  0  0  0  0  0  0  0  0
   -3.3266   31.3626    9.1836 C   0  0  0  0  0  0  0  0  0  0  0  0
   -2.2677   30.5305    8.9196 C   0  0  0  0  0  0  0  0  0  0  0  0
   -0.9087   30.7207    9.1422 N   0  0  0  0  0  0  0  0  0  0  0  0
   -0.2166   29.5850    8.6989 C   0  0  0  0  0  0  0  0  0  0  0  0
    0.9868   29.4037    8.7372 O   0  0  0  0  0  0  0  0  0  0  0  0
   -1.1805   28.6960    8.2006 N   0  0  0  0  0  0  0  0  0  0  0  0
   -2.4363   29.2767    8.3379 C   0  0  0  0  0  0  0  0  0  0  0  0
   -3.6736   28.7857    7.9918 C   0  0  0  0  0  0  0  0  0  0  0  0
   -0.4637   31.5259    9.5505 H   0  0  0  0  0  0  0  0  0  0  0  0
   -0.9596   27.7932    7.8148 H   0  0  0  0  0  0  0  0  0  0  0  0
 14 15  1  0  0  0
 15 16  1  0  0  0
 15 13  1  0  0  0
 13  3  1  0  0  0
  3  4  2  0  0  0
  4  5  1  0  0  0
  5  6  2  0  0  0
  6  7  1  0  0  0
  7  8  2  0  0  0
  7  9  1  0  0  0
  9 10  2  0  0  0
 10 11  1  0  0  0
 11 12  2  0  0  0
 12  1  1  0  0  0
  1 17  1  0  0  0
 17 18  1  0  0  0
 18 19  1  0  0  0
 19 20  2  0  0  0
 20 21  1  0  0  0
 21 22  1  0  0  0
 22 23  1  0  0  0
 23 24  2  0  0  0
 23 25  1  0  0  0
 25 26  1  0  0  0
 26 27  1  0  0  0
  8  3  1  0  0  0
 27 18  2  0  0  0
 12  6  1  0  0  0
 26 21  2  0  0  0
  1  2  1  0  0  0
 22 28  1  0  0  0
 25 29  1  0  0  0
M  END
> <minimizedAffinity>
-9.91916

$$$$
OCNT-2312110


 25 28  0  0  0  0  0  0  0  0999 V2000
   -2.3547   28.0121    7.1481 C   0  0  0  0  0  0  0  0  0  0  0  0
   -1.6545   26.8743    7.2594 N   0  0  0  0  0  0  0  0  0  0  0  0
   -2.0858   26.1113    6.1794 O   0  0  0  0  0  0  0  0  0  0  0  0
   -2.9922   26.8704    5.4892 C   0  0  0  0  0  0  0  0  0  0  0  0
   -3.1753   28.0508    6.0422 N   0  0  0  0  0  0  0  0  0  0  0  0
   -2.1119   32.4314   10.5772 F   0  0  0  0  0  0  0  0  0  0  0  0
   -2.1518   31.3729    9.7581 C   0  0  0  0  0  0  0  0  0  0  0  0
   -3.3624   30.7404    9.5176 C   0  0  0  0  0  0  0  0  0  0  0  0
   -3.4002   29.6367    8.6635 C   0  0  0  0  0  0  0  0  0  0  0  0
   -2.2287   29.1604    8.0387 C   0  0  0  0  0  0  0  0  0  0  0  0
   -1.0120   29.8118    8.3127 C   0  0  0  0  0  0  0  0  0  0  0  0
    0.5132   29.2877    7.6839 Cl  0  0  0  0  0  0  0  0  0  0  0  0
   -0.9794   30.9195    9.1689 C   0  0  0  0  0  0  0  0  0  0  0  0
   -3.7070   26.3794    4.2004 C   0  0  0  0  0  0  0  0  0  0  0  0
   -3.4285   25.2147    3.5217 C   0  0  0  0  0  0  0  0  0  0  0  0
   -4.3094   25.2320    2.4813 N   0  0  0  0  0  0  0  0  0  0  0  0
   -5.0753   26.3361    2.5038 N   0  0  0  0  0  0  0  0  0  0  0  0
   -4.7167   27.0485    3.5653 N   0  0  0  0  0  0  0  0  0  0  0  0
   -4.4697   24.2466    1.4337 C   0  0  0  0  0  0  0  0  0  0  0  0
   -5.9373   23.9871    1.0804 C   0  0  0  0  0  0  0  0  0  0  0  0
   -6.1965   22.6074    0.4844 C   0  0  0  0  0  0  0  0  0  0  0  0
   -7.4938   22.7740   -0.2955 C   0  0  0  0  0  0  0  0  0  0  0  0
   -7.7060   24.2768   -0.4056 C   0  0  0  0  0  0  0  0  0  0  0  0
   -6.4413   24.8886    0.0212 N   0  0  0  0  0  0  0  0  0  0  0  0
   -5.7998   24.8767   -0.7734 H   0  0  0  0  0  0  0  0  0  0  0  0
  6  7  1  0  0  0
  7  8  1  0  0  0
  8  9  2  0  0  0
  9 10  1  0  0  0
 10  1  1  0  0  0
  1  2  2  0  0  0
  2  3  1  0  0  0
  3  4  1  0  0  0
  4 14  1  0  0  0
 14 15  2  0  0  0
 15 16  1  0  0  0
 16 19  1  0  0  0
 19 20  1  0  0  0
 20 21  1  0  0  0
 21 22  1  0  0  0
 22 23  1  0  0  0
 23 24  1  0  0  0
 16 17  1  0  0  0
 17 18  2  0  0  0
  4  5  2  0  0  0
 10 11  2  0  0  0
 11 12  1  0  0  0
 11 13  1  0  0  0
 13  7  2  0  0  0
  5  1  1  0  0  0
 18 14  1  0  0  0
 24 20  1  0  0  0
 24 25  1  0  0  0
M  END
> <minimizedAffinity>
-9.77065

$$$$
OCNT-2312113


 22 24  0  0  0  0  0  0  0  0999 V2000
   -6.2495   22.8851    2.3242 N   0  0  0  0  0  0  0  0  0  0  0  0
   -7.0897   22.5616    1.2869 C   0  0  0  0  0  0  0  0  0  0  0  0
   -7.1508   23.3889    0.2917 N   0  0  0  0  0  0  0  0  0  0  0  0
   -6.2811   24.4000    0.6501 C   0  0  0  0  0  0  0  0  0  0  0  0
   -5.9248   25.3147   -0.0782 O   0  0  0  0  0  0  0  0  0  0  0  0
   -5.8144   24.1766    1.9499 N   0  0  0  0  0  0  0  0  0  0  0  0
   -8.2691   22.1935    7.6793 C   0  0  0  0  0  0  0  0  0  0  0  0
   -7.7076   22.3683    6.2961 C   0  0  0  0  0  0  0  0  0  0  0  0
   -8.5562   22.7455    5.2479 C   0  0  0  0  0  0  0  0  0  0  0  0
   -8.0576   22.9133    3.9522 C   0  0  0  0  0  0  0  0  0  0  0  0
   -6.6987   22.7102    3.6628 C   0  0  0  0  0  0  0  0  0  0  0  0
   -5.8529   22.3340    4.7159 C   0  0  0  0  0  0  0  0  0  0  0  0
   -6.3498   22.1651    6.0141 C   0  0  0  0  0  0  0  0  0  0  0  0
   -5.2331   21.7001    7.2484 Cl  0  0  0  0  0  0  0  0  0  0  0  0
   -4.4770   24.5983    2.3297 C   0  0  0  0  0  0  0  0  0  0  0  0
   -4.4690   25.8492    3.2167 C   0  0  0  0  0  0  0  0  0  0  0  0
   -5.8859   26.3031    3.6146 C   0  0  0  0  0  0  0  0  0  0  0  0
   -6.0155   27.8227    3.5415 C   0  0  0  0  0  0  0  0  0  0  0  0
   -5.6476   28.3168    4.9358 C   0  0  0  0  0  0  0  0  0  0  0  0
   -5.5952   27.1381    5.8126 N   0  0  0  0  0  0  0  0  0  0  0  0
   -6.2400   26.0483    5.0749 C   0  0  0  0  0  0  0  0  0  0  0  0
   -4.6176   26.8984    5.9771 H   0  0  0  0  0  0  0  0  0  0  0  0
  7  8  1  0  0  0
  8  9  1  0  0  0
  9 10  2  0  0  0
 10 11  1  0  0  0
 11  1  1  0  0  0
  1  2  1  0  0  0
  2  3  2  0  0  0
  3  4  1  0  0  0
  4  5  2  0  0  0
  4  6  1  0  0  0
  6 15  1  0  0  0
 15 16  1  0  0  0
 16 17  1  0  0  0
 17 18  1  0  0  0
 18 19  1  0  0  0
 19 20  1  0  0  0
 20 21  1  0  0  0
 11 12  2  0  0  0
 12 13  1  0  0  0
 13 14  1  0  0  0
 13  8  2  0  0  0
  6  1  1  0  0  0
 21 17  1  0  0  0
 20 22  1  0  0  0
M  END
> <minimizedAffinity>
-8.13767

$$$$
OCNT-2312118


 30 33  0  0  0  0  0  0  0  0999 V2000
   -6.2554   29.7633    6.6045 C   0  0  0  0  0  0  0  0  0  0  0  0
   -7.3800   30.1535    6.9256 O   0  0  0  0  0  0  0  0  0  0  0  0
   -5.0808   30.3699    7.0759 N   0  0  0  0  0  0  0  0  0  0  0  0
   -5.3279   31.6872    7.6800 C   0  0  0  0  0  0  0  0  0  0  0  0
   -4.1330   32.3114    8.4047 C   0  0  0  0  0  0  0  0  0  0  0  0
   -2.9447   32.3513    7.5446 N   0  0  0  0  0  0  0  0  0  0  0  0
   -2.5950   30.9667    7.1992 C   0  0  0  0  0  0  0  0  0  0  0  0
   -3.7301   30.1643    6.4799 C   0  0  0  0  0  0  0  0  0  0  0  0
   -2.1727   32.7693    8.0645 H   0  0  0  0  0  0  0  0  0  0  0  0
   -5.9153   30.0506    3.6974 O   0  0  0  0  0  0  0  0  0  0  0  0
   -5.9599   28.9217    4.1752 C   0  0  0  0  0  0  0  0  0  0  0  0
   -5.8396   27.8039    3.3785 N   0  0  0  0  0  0  0  0  0  0  0  0
   -5.8723   26.5108    3.8427 C   0  0  0  0  0  0  0  0  0  0  0  0
   -6.0160   26.2816    5.1586 C   0  0  0  0  0  0  0  0  0  0  0  0
   -6.1460   27.3921    6.0765 C   0  0  0  0  0  0  0  0  0  0  0  0
   -6.1615   28.6603    5.6270 C   0  0  0  0  0  0  0  0  0  0  0  0
   -5.7366   27.9848    2.3880 H   0  0  0  0  0  0  0  0  0  0  0  0
   -5.7258   25.4189    2.8707 C   0  0  0  0  0  0  0  0  0  0  0  0
   -5.8265   25.6599    1.4991 C   0  0  0  0  0  0  0  0  0  0  0  0
   -5.6652   24.5953    0.6281 C   0  0  0  0  0  0  0  0  0  0  0  0
   -5.4193   23.3299    1.0278 N   0  0  0  0  0  0  0  0  0  0  0  0
   -5.3263   23.1188    2.3574 C   0  0  0  0  0  0  0  0  0  0  0  0
   -5.4668   24.1173    3.3066 C   0  0  0  0  0  0  0  0  0  0  0  0
   -3.2714   28.7098    6.4540 C   0  0  0  0  0  0  0  0  0  0  0  0
   -3.0979   27.9760    7.6393 C   0  0  0  0  0  0  0  0  0  0  0  0
   -2.6684   26.6478    7.5987 C   0  0  0  0  0  0  0  0  0  0  0  0
   -2.3954   26.0381    6.3753 C   0  0  0  0  0  0  0  0  0  0  0  0
   -2.5477   26.7619    5.1961 C   0  0  0  0  0  0  0  0  0  0  0  0
   -2.2119   26.0137    3.6834 Cl  0  0  0  0  0  0  0  0  0  0  0  0
   -2.9743   28.0898    5.2285 C   0  0  0  0  0  0  0  0  0  0  0  0
 10 11  2  0  0  0
 11 12  1  0  0  0
 12 13  1  0  0  0
 13 18  1  0  0  0
 18 19  2  0  0  0
 19 20  1  0  0  0
 20 21  2  0  0  0
 21 22  1  0  0  0
 22 23  2  0  0  0
 13 14  2  0  0  0
 14 15  1  0  0  0
 15 16  2  0  0  0
 16  1  1  0  0  0
  1  2  2  0  0  0
  1  3  1  0  0  0
  3  4  1  0  0  0
  4  5  1  0  0  0
  5  6  1  0  0  0
  6  7  1  0  0  0
  7  8  1  0  0  0
  8 24  1  0  0  0
 24 25  2  0  0  0
 25 26  1  0  0  0
 26 27  2  0  0  0
 27 28  1  0  0  0
 28 29  1  0  0  0
 28 30  2  0  0  0
 16 11  1  0  0  0
  8  3  1  0  0  0
 30 24  1  0  0  0
 23 18  1  0  0  0
 12 17  1  0  0  0
  6  9  1  0  0  0
M  END
> <minimizedAffinity>
-7.38790

$$$$
OCNT-2312136


 23 25  0  0  0  0  0  0  0  0999 V2000
   -2.9056   26.0530    3.8354 C   0  0  0  0  0  0  0  0  0  0  0  0
   -4.0502   25.4244    4.5007 N   0  0  0  0  0  0  0  0  0  0  0  0
   -4.0929   25.7282    5.4746 H   0  0  0  0  0  0  0  0  0  0  0  0
   -6.4587   24.7162    4.5130 C   0  0  0  0  0  0  0  0  0  0  0  0
   -5.3836   25.6361    3.8912 C   0  0  0  0  0  0  0  0  0  0  0  0
   -5.3157   25.3306    2.3769 C   0  0  0  0  0  0  0  0  0  0  0  0
   -5.7864   27.0961    4.1876 C   0  0  0  0  0  0  0  0  0  0  0  0
   -6.1679   27.4604    5.4918 C   0  0  0  0  0  0  0  0  0  0  0  0
   -6.5323   28.7710    5.7612 C   0  0  0  0  0  0  0  0  0  0  0  0
   -6.5487   29.7490    4.8347 N   0  0  0  0  0  0  0  0  0  0  0  0
   -6.1799   29.3954    3.5873 C   0  0  0  0  0  0  0  0  0  0  0  0
   -5.7976   28.1103    3.2212 C   0  0  0  0  0  0  0  0  0  0  0  0
   -1.6479   25.9183    4.7018 C   0  0  0  0  0  0  0  0  0  0  0  0
   -1.5963   26.9975    5.7202 C   0  0  0  0  0  0  0  0  0  0  0  0
   -2.5916   27.7093    6.2148 N   0  0  0  0  0  0  0  0  0  0  0  0
   -1.9746   28.5549    7.1025 C   0  0  0  0  0  0  0  0  0  0  0  0
   -2.4960   29.5481    7.9405 C   0  0  0  0  0  0  0  0  0  0  0  0
   -1.5935   30.2566    8.7452 C   0  0  0  0  0  0  0  0  0  0  0  0
   -2.2535   31.6094    9.8942 Br  0  0  0  0  0  0  0  0  0  0  0  0
   -0.2176   29.9912    8.7219 C   0  0  0  0  0  0  0  0  0  0  0  0
    0.3135   28.9998    7.8870 C   0  0  0  0  0  0  0  0  0  0  0  0
   -0.6090   28.3177    7.1038 C   0  0  0  0  0  0  0  0  0  0  0  0
   -0.3577   27.3160    6.2131 O   0  0  0  0  0  0  0  0  0  0  0  0
  4  5  1  0  0  0
  5  6  1  0  0  0
  5  2  1  0  0  0
  2  1  1  0  0  0
  1 13  1  0  0  0
 13 14  1  0  0  0
 14 15  2  0  0  0
 15 16  1  0  0  0
 16 17  2  0  0  0
 17 18  1  0  0  0
 18 19  1  0  0  0
 18 20  2  0  0  0
 20 21  1  0  0  0
 21 22  2  0  0  0
 22 23  1  0  0  0
  5  7  1  0  0  0
  7  8  2  0  0  0
  8  9  1  0  0  0
  9 10  2  0  0  0
 10 11  1  0  0  0
 11 12  2  0  0  0
 23 14  1  0  0  0
 12  7  1  0  0  0
 22 16  1  0  0  0
  2  3  1  0  0  0
M  END
> <minimizedAffinity>
-8.55523

$$$$
OCNT-2312140


 23 26  0  0  0  0  0  0  0  0999 V2000
   -2.5320   27.0480    5.4805 N   0  0  0  0  0  0  0  0  0  0  0  0
   -3.7062   26.7243    4.8397 C   0  0  0  0  0  0  0  0  0  0  0  0
   -3.3401   25.8033    3.8875 C   0  0  0  0  0  0  0  0  0  0  0  0
   -1.9962   25.5866    3.9590 N   0  0  0  0  0  0  0  0  0  0  0  0
   -1.5099   26.3471    4.9305 N   0  0  0  0  0  0  0  0  0  0  0  0
   -4.2880   25.0995    2.8714 C   0  0  0  0  0  0  0  0  0  0  0  0
   -4.9276   25.7249    1.8199 C   0  0  0  0  0  0  0  0  0  0  0  0
   -5.7331   24.8177    1.0608 C   0  0  0  0  0  0  0  0  0  0  0  0
   -5.6558   23.5397    1.5799 C   0  0  0  0  0  0  0  0  0  0  0  0
   -6.4077   22.3722    1.0252 C   0  0  0  0  0  0  0  0  0  0  0  0
   -7.0131   22.7584   -0.3420 C   0  0  0  0  0  0  0  0  0  0  0  0
   -7.5929   24.1182   -0.3543 N   0  0  0  0  0  0  0  0  0  0  0  0
   -6.5477   25.1391   -0.1574 C   0  0  0  0  0  0  0  0  0  0  0  0
   -4.6528   23.4321    2.9434 S   0  0  0  0  0  0  0  0  0  0  0  0
   -8.2517   24.1944    0.4213 H   0  0  0  0  0  0  0  0  0  0  0  0
    0.5325   29.3990    8.6354 C   0  0  0  0  0  0  0  0  0  0  0  0
   -0.8411   29.0996    8.1148 C   0  0  0  0  0  0  0  0  0  0  0  0
   -1.0309   28.2047    7.0491 C   0  0  0  0  0  0  0  0  0  0  0  0
   -2.3217   27.9557    6.5528 C   0  0  0  0  0  0  0  0  0  0  0  0
   -3.4229   28.6155    7.1230 C   0  0  0  0  0  0  0  0  0  0  0  0
   -3.2335   29.5153    8.1728 C   0  0  0  0  0  0  0  0  0  0  0  0
   -1.9515   29.7527    8.6549 C   0  0  0  0  0  0  0  0  0  0  0  0
   -1.7886   30.6277    9.6573 F   0  0  0  0  0  0  0  0  0  0  0  0
 16 17  1  0  0  0
 17 18  1  0  0  0
 18 19  2  0  0  0
 19  1  1  0  0  0
  1  2  1  0  0  0
  2  3  2  0  0  0
  3  6  1  0  0  0
  6  7  2  0  0  0
  7  8  1  0  0  0
  8  9  2  0  0  0
  9 10  1  0  0  0
 10 11  1  0  0  0
 11 12  1  0  0  0
 12 13  1  0  0  0
  9 14  1  0  0  0
  3  4  1  0  0  0
  4  5  2  0  0  0
 19 20  1  0  0  0
 20 21  2  0  0  0
 21 22  1  0  0  0
 22 23  1  0  0  0
 22 17  2  0  0  0
  5  1  1  0  0  0
 14  6  1  0  0  0
 13  8  1  0  0  0
 12 15  1  0  0  0
M  END
> <minimizedAffinity>
-9.28757

$$$$
OCNT-2312148


 28 31  0  0  0  0  0  0  0  0999 V2000
   -2.8598   26.9283    6.7098 O   0  0  0  0  0  0  0  0  0  0  0  0
   -3.8585   27.4202    6.1915 C   0  0  0  0  0  0  0  0  0  0  0  0
   -4.5029   28.5489    6.6820 N   0  0  0  0  0  0  0  0  0  0  0  0
   -5.5030   29.3292    5.9365 C   0  0  0  0  0  0  0  0  0  0  0  0
   -6.0891   30.4819    6.7713 C   0  0  0  0  0  0  0  0  0  0  0  0
   -5.0975   31.3886    7.3491 N   0  0  0  0  0  0  0  0  0  0  0  0
   -3.8330   30.7180    7.7453 C   0  0  0  0  0  0  0  0  0  0  0  0
   -3.9836   29.1837    7.8987 C   0  0  0  0  0  0  0  0  0  0  0  0
   -4.8945   32.1629    6.7211 H   0  0  0  0  0  0  0  0  0  0  0  0
   -4.3755   26.7738    4.9661 C   0  0  0  0  0  0  0  0  0  0  0  0
   -3.5581   26.7236    3.8341 C   0  0  0  0  0  0  0  0  0  0  0  0
   -4.0128   26.0848    2.6750 C   0  0  0  0  0  0  0  0  0  0  0  0
   -5.2810   25.4834    2.6426 C   0  0  0  0  0  0  0  0  0  0  0  0
   -6.0806   25.5275    3.7942 C   0  0  0  0  0  0  0  0  0  0  0  0
   -5.6262   26.1544    4.9572 C   0  0  0  0  0  0  0  0  0  0  0  0
   -5.7874   24.8138    1.4561 C   0  0  0  0  0  0  0  0  0  0  0  0
   -5.9663   23.4559    1.2845 C   0  0  0  0  0  0  0  0  0  0  0  0
   -6.4858   23.3200    0.0267 N   0  0  0  0  0  0  0  0  0  0  0  0
   -6.5995   24.5703   -0.5120 C   0  0  0  0  0  0  0  0  0  0  0  0
   -6.1888   25.4921    0.3254 N   0  0  0  0  0  0  0  0  0  0  0  0
   -6.7473   22.4531   -0.4258 H   0  0  0  0  0  0  0  0  0  0  0  0
   -2.6584   31.0328    6.7794 C   0  0  0  0  0  0  0  0  0  0  0  0
   -1.3398   30.4051    7.1752 C   0  0  0  0  0  0  0  0  0  0  0  0
   -0.9061   30.4393    8.5087 C   0  0  0  0  0  0  0  0  0  0  0  0
    0.3109   29.8584    8.8754 C   0  0  0  0  0  0  0  0  0  0  0  0
    1.1069   29.2403    7.9140 C   0  0  0  0  0  0  0  0  0  0  0  0
    0.6859   29.1982    6.5862 C   0  0  0  0  0  0  0  0  0  0  0  0
   -0.5331   29.7788    6.2164 C   0  0  0  0  0  0  0  0  0  0  0  0
  1  2  2  0  0  0
  2 10  1  0  0  0
 10 11  1  0  0  0
 11 12  2  0  0  0
 12 13  1  0  0  0
 13 16  1  0  0  0
 16 17  2  0  0  0
 17 18  1  0  0  0
 18 19  1  0  0  0
 19 20  2  0  0  0
 13 14  2  0  0  0
 14 15  1  0  0  0
  2  3  1  0  0  0
  3  4  1  0  0  0
  4  5  1  0  0  0
  5  6  1  0  0  0
  6  7  1  0  0  0
  7 22  1  0  0  0
 22 23  1  0  0  0
 23 24  2  0  0  0
 24 25  1  0  0  0
 25 26  2  0  0  0
 26 27  1  0  0  0
 27 28  2  0  0  0
  7  8  1  0  0  0
 15 10  2  0  0  0
  8  3  1  0  0  0
 20 16  1  0  0  0
 28 23  1  0  0  0
 18 21  1  0  0  0
  6  9  1  0  0  0
M  END
> <minimizedAffinity>
-9.25429

$$$$
OCNT-2312150


 27 30  0  0  0  0  0  0  0  0999 V2000
   -3.2500   29.3462    7.0390 C   0  0  0  0  0  0  0  0  0  0  0  0
   -2.0407   28.7841    6.8933 N   0  0  0  0  0  0  0  0  0  0  0  0
   -2.2897   27.6688    6.0987 O   0  0  0  0  0  0  0  0  0  0  0  0
   -3.6340   27.6571    5.8333 C   0  0  0  0  0  0  0  0  0  0  0  0
   -4.2586   28.6727    6.3935 N   0  0  0  0  0  0  0  0  0  0  0  0
   -5.7022   33.4589    7.8065 F   0  0  0  0  0  0  0  0  0  0  0  0
   -4.7305   32.6155    8.1808 C   0  0  0  0  0  0  0  0  0  0  0  0
   -4.5104   31.4597    7.4327 C   0  0  0  0  0  0  0  0  0  0  0  0
   -3.4982   30.5615    7.8061 C   0  0  0  0  0  0  0  0  0  0  0  0
   -2.7204   30.8511    8.9386 C   0  0  0  0  0  0  0  0  0  0  0  0
   -2.9567   32.0121    9.6728 C   0  0  0  0  0  0  0  0  0  0  0  0
   -2.2026   32.2685   10.7503 F   0  0  0  0  0  0  0  0  0  0  0  0
   -3.9585   32.8955    9.2988 C   0  0  0  0  0  0  0  0  0  0  0  0
   -4.1788   34.0094   10.0107 F   0  0  0  0  0  0  0  0  0  0  0  0
   -4.3179   26.5527    4.9611 C   0  0  0  0  0  0  0  0  0  0  0  0
   -5.6405   26.3474    4.9461 N   0  0  0  0  0  0  0  0  0  0  0  0
   -5.8454   25.2965    4.0689 O   0  0  0  0  0  0  0  0  0  0  0  0
   -4.6506   24.8910    3.5597 C   0  0  0  0  0  0  0  0  0  0  0  0
   -3.6460   25.6564    4.1007 C   0  0  0  0  0  0  0  0  0  0  0  0
   -4.6874   23.7655    2.5906 C   0  0  0  0  0  0  0  0  0  0  0  0
   -5.9235   23.8151    1.6686 C   0  0  0  0  0  0  0  0  0  0  0  0
   -5.9881   22.6068    0.7200 C   0  0  0  0  0  0  0  0  0  0  0  0
   -7.2442   22.6418   -0.1526 C   0  0  0  0  0  0  0  0  0  0  0  0
   -7.7322   24.0636   -0.4167 C   0  0  0  0  0  0  0  0  0  0  0  0
   -6.5809   25.0589   -0.3706 C   0  0  0  0  0  0  0  0  0  0  0  0
   -5.8973   25.0903    0.9234 N   0  0  0  0  0  0  0  0  0  0  0  0
   -6.3006   25.8251    1.5053 H   0  0  0  0  0  0  0  0  0  0  0  0
  6  7  1  0  0  0
  7  8  2  0  0  0
  8  9  1  0  0  0
  9  1  1  0  0  0
  1  2  2  0  0  0
  2  3  1  0  0  0
  3  4  1  0  0  0
  4 15  1  0  0  0
 15 16  2  0  0  0
 16 17  1  0  0  0
 17 18  1  0  0  0
 18 20  1  0  0  0
 20 21  1  0  0  0
 21 22  1  0  0  0
 22 23  1  0  0  0
 23 24  1  0  0  0
 24 25  1  0  0  0
 25 26  1  0  0  0
 18 19  2  0  0  0
  4  5  2  0  0  0
  9 10  2  0  0  0
 10 11  1  0  0  0
 11 12  1  0  0  0
 11 13  2  0  0  0
 13 14  1  0  0  0
 13  7  1  0  0  0
  5  1  1  0  0  0
 19 15  1  0  0  0
 26 21  1  0  0  0
 26 27  1  0  0  0
M  END
> <minimizedAffinity>
-10.10519

$$$$
OCNT-2312156


 22 25  0  0  0  0  0  0  0  0999 V2000
   -2.1836   27.5563    7.8905 O   0  0  0  0  0  0  0  0  0  0  0  0
   -2.4371   27.7910    6.7152 C   0  0  0  0  0  0  0  0  0  0  0  0
   -3.1201   28.8899    6.2496 N   0  0  0  0  0  0  0  0  0  0  0  0
   -3.2292   29.0375    5.2604 H   0  0  0  0  0  0  0  0  0  0  0  0
   -3.6195   29.8578    7.0719 C   0  0  0  0  0  0  0  0  0  0  0  0
   -4.5932   29.7989    7.9426 N   0  0  0  0  0  0  0  0  0  0  0  0
   -4.7435   31.0356    8.5422 C   0  0  0  0  0  0  0  0  0  0  0  0
   -3.8704   32.0082    8.1078 C   0  0  0  0  0  0  0  0  0  0  0  0
   -2.8323   31.3679    6.9128 S   0  0  0  0  0  0  0  0  0  0  0  0
   -3.8031   33.4872    8.5963 C   0  0  0  0  0  0  0  0  0  0  0  0
   -4.7593   33.9987    9.6410 C   0  0  0  0  0  0  0  0  0  0  0  0
   -4.9022   34.4427    8.2126 C   0  0  0  0  0  0  0  0  0  0  0  0
   -2.0094   26.8968    5.6396 C   0  0  0  0  0  0  0  0  0  0  0  0
   -0.7156   26.5086    5.3025 C   0  0  0  0  0  0  0  0  0  0  0  0
   -0.7716   25.7085    4.1419 C   0  0  0  0  0  0  0  0  0  0  0  0
   -2.0930   25.6160    3.7830 C   0  0  0  0  0  0  0  0  0  0  0  0
   -2.8503   26.2948    4.7110 N   0  0  0  0  0  0  0  0  0  0  0  0
   -4.3086   26.3806    4.6852 C   0  0  0  0  0  0  0  0  0  0  0  0
   -5.0392   25.0359    4.8886 C   0  0  0  0  0  0  0  0  0  0  0  0
   -6.1534   25.0281    3.8498 C   0  0  0  0  0  0  0  0  0  0  0  0
   -5.5619   25.8009    2.6846 C   0  0  0  0  0  0  0  0  0  0  0  0
   -4.8358   26.9563    3.3605 C   0  0  0  0  0  0  0  0  0  0  0  0
  1  2  2  0  0  0
  2  3  1  0  0  0
  3  5  1  0  0  0
  5  6  2  0  0  0
  6  7  1  0  0  0
  7  8  2  0  0  0
  8 10  1  0  0  0
 10 11  1  0  0  0
 11 12  1  0  0  0
  8  9  1  0  0  0
  2 13  1  0  0  0
 13 14  2  0  0  0
 14 15  1  0  0  0
 15 16  2  0  0  0
 16 17  1  0  0  0
 17 18  1  0  0  0
 18 19  1  0  0  0
 19 20  1  0  0  0
 20 21  1  0  0  0
 21 22  1  0  0  0
  9  5  1  0  0  0
 17 13  1  0  0  0
 22 18  1  0  0  0
 12 10  1  0  0  0
  3  4  1  0  0  0
M  END
> <minimizedAffinity>
-8.26612

$$$$
OCNT-2312165


 23 25  0  0  0  0  0  0  0  0999 V2000
   -7.0859   29.8456    6.4219 C   0  0  0  0  0  0  0  0  0  0  0  0
   -5.4901   27.0982    3.4601 C   0  0  0  0  0  0  0  0  0  0  0  0
   -6.2434   26.5724    4.6915 C   0  0  0  0  0  0  0  0  0  0  0  0
   -6.2606   27.6162    5.8139 C   0  0  0  0  0  0  0  0  0  0  0  0
   -6.8409   28.8762    5.3433 N   0  0  0  0  0  0  0  0  0  0  0  0
   -6.1020   29.4324    4.2068 C   0  0  0  0  0  0  0  0  0  0  0  0
   -6.0889   28.4444    3.0357 C   0  0  0  0  0  0  0  0  0  0  0  0
   -5.4036   26.0529    2.3271 C   0  0  0  0  0  0  0  0  0  0  0  0
   -3.9975   24.0221    2.8237 C   0  0  0  0  0  0  0  0  0  0  0  0
   -4.0431   25.3745    2.1210 C   0  0  0  0  0  0  0  0  0  0  0  0
   -3.0187   26.1926    2.6802 O   0  0  0  0  0  0  0  0  0  0  0  0
   -2.1658   25.7729    2.4752 H   0  0  0  0  0  0  0  0  0  0  0  0
   -5.9884   29.9981    7.4427 C   0  0  0  0  0  0  0  0  0  0  0  0
   -5.9935   29.6223    8.7738 C   0  0  0  0  0  0  0  0  0  0  0  0
   -4.7590   29.9092    9.4267 C   0  0  0  0  0  0  0  0  0  0  0  0
   -3.8437   30.4761    8.5681 C   0  0  0  0  0  0  0  0  0  0  0  0
   -4.4650   30.6523    6.9926 S   0  0  0  0  0  0  0  0  0  0  0  0
   -2.4000   30.9035    8.9834 C   0  0  0  0  0  0  0  0  0  0  0  0
   -2.1090   32.0905    9.5427 N   0  0  0  0  0  0  0  0  0  0  0  0
   -0.7835   31.9528    9.6946 N   0  0  0  0  0  0  0  0  0  0  0  0
   -0.2587   30.7954    9.2777 N   0  0  0  0  0  0  0  0  0  0  0  0
   -1.2940   30.1078    8.8156 N   0  0  0  0  0  0  0  0  0  0  0  0
   -0.2058   32.6828   10.1024 H   0  0  0  0  0  0  0  0  0  0  0  0
  9 10  1  0  0  0
 10 11  1  0  0  0
 10  8  1  0  0  0
  8  2  1  0  0  0
  2  3  1  0  0  0
  3  4  1  0  0  0
  4  5  1  0  0  0
  5  1  1  0  0  0
  1 13  1  0  0  0
 13 14  2  0  0  0
 14 15  1  0  0  0
 15 16  2  0  0  0
 16 18  1  0  0  0
 18 19  2  0  0  0
 19 20  1  0  0  0
 20 21  1  0  0  0
 21 22  2  0  0  0
 16 17  1  0  0  0
  5  6  1  0  0  0
  6  7  1  0  0  0
  7  2  1  0  0  0
 17 13  1  0  0  0
 22 18  1  0  0  0
 11 12  1  0  0  0
 20 23  1  0  0  0
M  END
> <minimizedAffinity>
-7.76645

$$$$
OCNT-2312180


 31 32  0  0  0  0  0  0  0  0999 V2000
   -5.7219   28.9896    5.9067 C   0  0  0  0  0  0  0  0  0  0  0  0
   -6.0758   29.5057    4.6632 C   0  0  0  0  0  0  0  0  0  0  0  0
   -6.0479   28.6688    3.5519 C   0  0  0  0  0  0  0  0  0  0  0  0
   -5.6716   27.3176    3.6757 C   0  0  0  0  0  0  0  0  0  0  0  0
   -5.6400   26.4735    2.4284 C   0  0  0  0  0  0  0  0  0  0  0  0
   -5.3427   26.7928    4.9466 C   0  0  0  0  0  0  0  0  0  0  0  0
   -5.3510   27.6469    6.0531 C   0  0  0  0  0  0  0  0  0  0  0  0
   -5.7227   30.0443    7.3323 S   0  0  0  0  0  0  0  0  0  0  0  0
   -5.3444   29.2251    8.4633 O   0  0  0  0  0  0  0  0  0  0  0  0
   -6.9465   30.8147    7.3427 O   0  0  0  0  0  0  0  0  0  0  0  0
   -4.4107   31.0712    7.0424 N   0  0  0  0  0  0  0  0  0  0  0  0
   -4.4597   31.4553    6.1003 H   0  0  0  0  0  0  0  0  0  0  0  0
    0.7988   29.4931    8.8288 C   0  0  0  0  0  0  0  0  0  0  0  0
   -0.5610   29.9177    8.3579 C   0  0  0  0  0  0  0  0  0  0  0  0
   -1.1350   29.3384    7.2241 C   0  0  0  0  0  0  0  0  0  0  0  0
   -2.4089   29.7235    6.8050 C   0  0  0  0  0  0  0  0  0  0  0  0
   -3.1289   30.6790    7.5246 C   0  0  0  0  0  0  0  0  0  0  0  0
   -2.5785   31.2643    8.6744 C   0  0  0  0  0  0  0  0  0  0  0  0
   -3.2995   32.3247    9.4561 C   0  0  0  0  0  0  0  0  0  0  0  0
   -1.2919   30.8708    9.0799 C   0  0  0  0  0  0  0  0  0  0  0  0
   -4.8399   25.4515    5.0188 N   0  0  0  0  0  0  0  0  0  0  0  0
   -4.0175   25.2389    4.4544 H   0  0  0  0  0  0  0  0  0  0  0  0
   -5.7999   24.0863    5.1559 S   0  0  0  0  0  0  0  0  0  0  0  0
   -7.1623   24.5761    5.1054 O   0  0  0  0  0  0  0  0  0  0  0  0
   -5.3511   23.2704    6.2604 O   0  0  0  0  0  0  0  0  0  0  0  0
   -5.4888   23.2244    3.6270 C   0  0  0  0  0  0  0  0  0  0  0  0
   -6.7466   22.5915    3.0677 C   0  0  0  0  0  0  0  0  0  0  0  0
   -7.2627   23.3852    1.9958 O   0  0  0  0  0  0  0  0  0  0  0  0
   -6.6316   23.1511    0.7339 C   0  0  0  0  0  0  0  0  0  0  0  0
   -6.0855   21.7283    0.6829 C   0  0  0  0  0  0  0  0  0  0  0  0
   -7.6911   23.3490   -0.3415 C   0  0  0  0  0  0  0  0  0  0  0  0
 13 14  1  0  0  0
 14 15  1  0  0  0
 15 16  2  0  0  0
 16 17  1  0  0  0
 17 11  1  0  0  0
 11  8  1  0  0  0
  8  9  2  0  0  0
  8 10  2  0  0  0
  8  1  1  0  0  0
  1  2  1  0  0  0
  2  3  2  0  0  0
  3  4  1  0  0  0
  4  5  1  0  0  0
  4  6  2  0  0  0
  6 21  1  0  0  0
 21 23  1  0  0  0
 23 24  2  0  0  0
 23 25  2  0  0  0
 23 26  1  0  0  0
 26 27  1  0  0  0
 27 28  1  0  0  0
 28 29  1  0  0  0
 29 30  1  0  0  0
 29 31  1  0  0  0
  6  7  1  0  0  0
 17 18  2  0  0  0
 18 19  1  0  0  0
 18 20  1  0  0  0
 20 14  2  0  0  0
  7  1  2  0  0  0
 11 12  1  0  0  0
 21 22  1  0  0  0
M  END
> <minimizedAffinity>
-9.26875

$$$$
OCNT-2312204


 25 27  0  0  0  0  0  0  0  0999 V2000
   -5.4320   23.8193    3.6303 N   0  0  0  0  0  0  0  0  0  0  0  0
   -4.6693   24.9747    3.8231 C   0  0  0  0  0  0  0  0  0  0  0  0
   -3.6528   25.2080    3.1635 O   0  0  0  0  0  0  0  0  0  0  0  0
   -8.1388   22.2710    6.5240 C   0  0  0  0  0  0  0  0  0  0  0  0
   -6.7648   22.1194    6.6906 C   0  0  0  0  0  0  0  0  0  0  0  0
   -5.8769   22.6302    5.7336 C   0  0  0  0  0  0  0  0  0  0  0  0
   -6.3453   23.2842    4.5882 C   0  0  0  0  0  0  0  0  0  0  0  0
   -7.7265   23.4486    4.4403 C   0  0  0  0  0  0  0  0  0  0  0  0
   -8.6126   22.9419    5.3971 C   0  0  0  0  0  0  0  0  0  0  0  0
   -8.8949   22.0436    8.7654 C   0  0  0  0  0  0  0  0  0  0  0  0
   -9.1095   21.8255    7.3764 O   0  0  0  0  0  0  0  0  0  0  0  0
   -5.1110   22.9802    2.4649 C   0  0  0  0  0  0  0  0  0  0  0  0
   -6.0552   23.2375    1.3198 C   0  0  0  0  0  0  0  0  0  0  0  0
   -6.9992   22.3959    0.7606 C   0  0  0  0  0  0  0  0  0  0  0  0
   -7.7176   23.0082   -0.3062 C   0  0  0  0  0  0  0  0  0  0  0  0
   -7.3178   24.3076   -0.5161 C   0  0  0  0  0  0  0  0  0  0  0  0
   -6.0922   24.7854    0.5739 S   0  0  0  0  0  0  0  0  0  0  0  0
   -5.1745   25.9946    4.8451 C   0  0  0  0  0  0  0  0  0  0  0  0
   -4.8679   27.4521    4.4441 C   0  0  0  0  0  0  0  0  0  0  0  0
   -5.8803   27.9667    3.4016 C   0  0  0  0  0  0  0  0  0  0  0  0
   -6.0843   29.4737    3.5149 C   0  0  0  0  0  0  0  0  0  0  0  0
   -6.6400   29.8629    4.8120 N   0  0  0  0  0  0  0  0  0  0  0  0
   -6.1820   29.0397    5.9310 C   0  0  0  0  0  0  0  0  0  0  0  0
   -4.8335   28.3699    5.6819 C   0  0  0  0  0  0  0  0  0  0  0  0
   -6.4208   30.8435    4.9851 H   0  0  0  0  0  0  0  0  0  0  0  0
 10 11  1  0  0  0
 11  4  1  0  0  0
  4  5  1  0  0  0
  5  6  2  0  0  0
  6  7  1  0  0  0
  7  1  1  0  0  0
  1 12  1  0  0  0
 12 13  1  0  0  0
 13 14  2  0  0  0
 14 15  1  0  0  0
 15 16  2  0  0  0
 16 17  1  0  0  0
  1  2  1  0  0  0
  2  3  2  0  0  0
  2 18  1  0  0  0
 18 19  1  0  0  0
 19 20  1  0  0  0
 20 21  1  0  0  0
 21 22  1  0  0  0
 22 23  1  0  0  0
 23 24  1  0  0  0
  7  8  2  0  0  0
  8  9  1  0  0  0
  9  4  2  0  0  0
 17 13  1  0  0  0
 24 19  1  0  0  0
 22 25  1  0  0  0
M  END
> <minimizedAffinity>
-8.29368

$$$$
OCNT-2312206


 27 30  0  0  0  0  0  0  0  0999 V2000
   -5.5611   28.8116    5.1210 C   0  0  0  0  0  0  0  0  0  0  0  0
   -6.3459   29.6753    4.7249 O   0  0  0  0  0  0  0  0  0  0  0  0
   -5.4051   27.6019    4.4090 N   0  0  0  0  0  0  0  0  0  0  0  0
   -5.9921   27.5355    3.0730 C   0  0  0  0  0  0  0  0  0  0  0  0
   -6.7194   28.9269    8.1348 C   0  0  0  0  0  0  0  0  0  0  0  0
   -5.3235   29.1229    7.6749 C   0  0  0  0  0  0  0  0  0  0  0  0
   -4.3488   29.3907    8.5508 N   0  0  0  0  0  0  0  0  0  0  0  0
   -3.2575   29.5088    7.7519 N   0  0  0  0  0  0  0  0  0  0  0  0
   -3.4828   29.3349    6.4224 N   0  0  0  0  0  0  0  0  0  0  0  0
   -4.7972   29.0613    6.3591 C   0  0  0  0  0  0  0  0  0  0  0  0
   -1.9668   29.7714    8.2627 C   0  0  0  0  0  0  0  0  0  0  0  0
   -0.8531   28.9641    8.2089 C   0  0  0  0  0  0  0  0  0  0  0  0
    0.1282   29.6537    8.8611 N   0  0  0  0  0  0  0  0  0  0  0  0
    1.4865   29.2198    9.0916 C   0  0  0  0  0  0  0  0  0  0  0  0
   -0.2738   30.8533    9.3218 N   0  0  0  0  0  0  0  0  0  0  0  0
   -1.5565   30.9243    8.9485 C   0  0  0  0  0  0  0  0  0  0  0  0
   -4.6699   26.4192    4.9238 C   0  0  0  0  0  0  0  0  0  0  0  0
   -3.2832   26.2696    4.2943 C   0  0  0  0  0  0  0  0  0  0  0  0
   -3.4857   25.3475    3.0915 C   0  0  0  0  0  0  0  0  0  0  0  0
   -4.7068   24.5983    3.3825 N   0  0  0  0  0  0  0  0  0  0  0  0
   -5.3033   25.0365    4.6446 C   0  0  0  0  0  0  0  0  0  0  0  0
   -5.0953   23.4679    2.6968 C   0  0  0  0  0  0  0  0  0  0  0  0
   -5.1031   22.2011    3.2946 C   0  0  0  0  0  0  0  0  0  0  0  0
   -5.5242   21.0909    2.5725 C   0  0  0  0  0  0  0  0  0  0  0  0
   -5.9409   21.1391    1.2940 N   0  0  0  0  0  0  0  0  0  0  0  0
   -5.9357   22.3587    0.7202 C   0  0  0  0  0  0  0  0  0  0  0  0
   -5.5341   23.5205    1.3687 C   0  0  0  0  0  0  0  0  0  0  0  0
  5  6  1  0  0  0
  6  7  2  0  0  0
  7  8  1  0  0  0
  8 11  1  0  0  0
 11 12  2  0  0  0
 12 13  1  0  0  0
 13 14  1  0  0  0
 13 15  1  0  0  0
 15 16  2  0  0  0
  8  9  1  0  0  0
  9 10  2  0  0  0
 10  1  1  0  0  0
  1  2  2  0  0  0
  1  3  1  0  0  0
  3  4  1  0  0  0
  3 17  1  0  0  0
 17 18  1  0  0  0
 18 19  1  0  0  0
 19 20  1  0  0  0
 20 22  1  0  0  0
 22 23  2  0  0  0
 23 24  1  0  0  0
 24 25  2  0  0  0
 25 26  1  0  0  0
 26 27  2  0  0  0
 20 21  1  0  0  0
 10  6  1  0  0  0
 21 17  1  0  0  0
 16 11  1  0  0  0
 27 22  1  0  0  0
M  END
> <minimizedAffinity>
-8.82392

$$$$
OCNT-2312208


 22 25  0  0  0  0  0  0  0  0999 V2000
   -2.3177   26.4979    5.6503 N   0  0  0  0  0  0  0  0  0  0  0  0
   -3.4722   25.9001    5.2339 C   0  0  0  0  0  0  0  0  0  0  0  0
   -3.1765   25.4485    3.9670 C   0  0  0  0  0  0  0  0  0  0  0  0
   -1.8809   25.7951    3.6642 N   0  0  0  0  0  0  0  0  0  0  0  0
   -1.3660   26.4430    4.7001 N   0  0  0  0  0  0  0  0  0  0  0  0
   -4.0510   24.7236    3.0603 C   0  0  0  0  0  0  0  0  0  0  0  0
   -4.2311   23.3375    3.1538 C   0  0  0  0  0  0  0  0  0  0  0  0
   -5.0788   22.6665    2.2660 C   0  0  0  0  0  0  0  0  0  0  0  0
   -5.7641   23.3726    1.2641 C   0  0  0  0  0  0  0  0  0  0  0  0
   -6.6230   22.7561    0.3502 C   0  0  0  0  0  0  0  0  0  0  0  0
   -7.2985   23.4048   -0.6268 N   0  0  0  0  0  0  0  0  0  0  0  0
   -7.1123   24.7384   -0.7022 C   0  0  0  0  0  0  0  0  0  0  0  0
   -6.2851   25.4532    0.1499 C   0  0  0  0  0  0  0  0  0  0  0  0
   -5.5943   24.7650    1.1547 C   0  0  0  0  0  0  0  0  0  0  0  0
   -4.7380   25.4245    2.0551 C   0  0  0  0  0  0  0  0  0  0  0  0
   -2.0519   27.1512    6.9162 C   0  0  0  0  0  0  0  0  0  0  0  0
    0.2695   29.2092    6.8034 C   0  0  0  0  0  0  0  0  0  0  0  0
   -1.1398   29.5171    6.7374 N   0  0  0  0  0  0  0  0  0  0  0  0
   -1.6606   30.7768    6.6208 C   0  0  0  0  0  0  0  0  0  0  0  0
   -3.0222   30.6050    6.6035 C   0  0  0  0  0  0  0  0  0  0  0  0
   -3.3423   29.2780    6.7072 N   0  0  0  0  0  0  0  0  0  0  0  0
   -2.1932   28.6304    6.7908 C   0  0  0  0  0  0  0  0  0  0  0  0
 17 18  1  0  0  0
 18 19  1  0  0  0
 19 20  2  0  0  0
 20 21  1  0  0  0
 21 22  2  0  0  0
 22 16  1  0  0  0
 16  1  1  0  0  0
  1  2  1  0  0  0
  2  3  2  0  0  0
  3  6  1  0  0  0
  6  7  1  0  0  0
  7  8  2  0  0  0
  8  9  1  0  0  0
  9 10  2  0  0  0
 10 11  1  0  0  0
 11 12  2  0  0  0
 12 13  1  0  0  0
 13 14  2  0  0  0
 14 15  1  0  0  0
  3  4  1  0  0  0
  4  5  2  0  0  0
 22 18  1  0  0  0
  5  1  1  0  0  0
 15  6  2  0  0  0
 14  9  1  0  0  0
M  END
> <minimizedAffinity>
-8.56740

$$$$
OCNT-2312209


 22 24  0  0  0  0  0  0  0  0999 V2000
   -6.3014   29.9310    8.4805 C   0  0  0  0  0  0  0  0  0  0  0  0
   -6.0153   31.2841    9.1337 C   0  0  0  0  0  0  0  0  0  0  0  0
   -4.5513   31.5605    8.7938 C   0  0  0  0  0  0  0  0  0  0  0  0
   -3.9619   30.2316    8.6581 N   0  0  0  0  0  0  0  0  0  0  0  0
   -4.9794   29.1828    8.6987 C   0  0  0  0  0  0  0  0  0  0  0  0
   -2.6069   29.9941    8.6322 C   0  0  0  0  0  0  0  0  0  0  0  0
   -2.0761   28.7950    8.1225 C   0  0  0  0  0  0  0  0  0  0  0  0
   -0.6990   28.5439    8.0969 C   0  0  0  0  0  0  0  0  0  0  0  0
    0.1773   29.4968    8.5876 C   0  0  0  0  0  0  0  0  0  0  0  0
    1.4954   29.2621    8.5652 F   0  0  0  0  0  0  0  0  0  0  0  0
   -0.2999   30.6901    9.1026 C   0  0  0  0  0  0  0  0  0  0  0  0
   -1.6792   30.9302    9.1236 C   0  0  0  0  0  0  0  0  0  0  0  0
   -6.6318   30.0383    6.9880 C   0  0  0  0  0  0  0  0  0  0  0  0
   -6.2338   29.8678    4.2307 O   0  0  0  0  0  0  0  0  0  0  0  0
   -6.1711   28.8371    4.8930 C   0  0  0  0  0  0  0  0  0  0  0  0
   -6.2877   28.8240    6.2694 N   0  0  0  0  0  0  0  0  0  0  0  0
   -6.5101   27.9386    6.6987 H   0  0  0  0  0  0  0  0  0  0  0  0
   -5.9942   27.5203    4.2732 C   0  0  0  0  0  0  0  0  0  0  0  0
   -6.1246   26.3519    5.0067 C   0  0  0  0  0  0  0  0  0  0  0  0
   -5.8702   24.9392    4.0802 S   0  0  0  0  0  0  0  0  0  0  0  0
   -5.6030   25.8544    2.6646 C   0  0  0  0  0  0  0  0  0  0  0  0
   -5.7005   27.2091    2.8989 C   0  0  0  0  0  0  0  0  0  0  0  0
 14 15  2  0  0  0
 15 16  1  0  0  0
 16 13  1  0  0  0
 13  1  1  0  0  0
  1  2  1  0  0  0
  2  3  1  0  0  0
  3  4  1  0  0  0
  4  6  1  0  0  0
  6  7  1  0  0  0
  7  8  2  0  0  0
  8  9  1  0  0  0
  9 10  1  0  0  0
  9 11  2  0  0  0
 11 12  1  0  0  0
  4  5  1  0  0  0
 15 18  1  0  0  0
 18 19  2  0  0  0
 19 20  1  0  0  0
 20 21  1  0  0  0
 21 22  2  0  0  0
  5  1  1  0  0  0
 22 18  1  0  0  0
 12  6  2  0  0  0
 16 17  1  0  0  0
M  END
> <minimizedAffinity>
-8.53761

$$$$
OCNT-2312226


 24 27  0  0  0  0  0  0  0  0999 V2000
   -2.9507   32.6276    7.8675 C   0  0  0  0  0  0  0  0  0  0  0  0
   -3.2653   31.4550    8.8211 C   0  0  0  0  0  0  0  0  0  0  0  0
   -2.4885   31.6935   10.1340 C   0  0  0  0  0  0  0  0  0  0  0  0
   -4.7840   31.4715    9.1664 C   0  0  0  0  0  0  0  0  0  0  0  0
   -5.6298   30.9228    8.0741 C   0  0  0  0  0  0  0  0  0  0  0  0
   -6.9200   31.0854    7.8877 N   0  0  0  0  0  0  0  0  0  0  0  0
   -7.2783   30.3692    6.7706 N   0  0  0  0  0  0  0  0  0  0  0  0
   -6.2013   29.7797    6.2928 C   0  0  0  0  0  0  0  0  0  0  0  0
   -5.1431   30.1006    7.0975 N   0  0  0  0  0  0  0  0  0  0  0  0
   -3.7513   29.7401    6.9429 C   0  0  0  0  0  0  0  0  0  0  0  0
   -2.9207   30.0465    8.2102 C   0  0  0  0  0  0  0  0  0  0  0  0
   -1.4401   29.7656    7.9865 C   0  0  0  0  0  0  0  0  0  0  0  0
   -0.5322   29.6077    9.0444 C   0  0  0  0  0  0  0  0  0  0  0  0
    0.8195   29.3561    8.7961 C   0  0  0  0  0  0  0  0  0  0  0  0
    1.2849   29.2584    7.4878 C   0  0  0  0  0  0  0  0  0  0  0  0
    0.3989   29.4103    6.4257 C   0  0  0  0  0  0  0  0  0  0  0  0
   -0.9522   29.6616    6.6725 C   0  0  0  0  0  0  0  0  0  0  0  0
   -6.1115   28.9171    5.0849 C   0  0  0  0  0  0  0  0  0  0  0  0
   -6.1989   27.4336    5.4364 C   0  0  0  0  0  0  0  0  0  0  0  0
   -6.0120   26.6007    4.2649 N   0  0  0  0  0  0  0  0  0  0  0  0
   -6.0531   25.2358    4.2266 C   0  0  0  0  0  0  0  0  0  0  0  0
   -5.7948   24.9128    2.9147 C   0  0  0  0  0  0  0  0  0  0  0  0
   -5.6013   26.0440    2.1642 N   0  0  0  0  0  0  0  0  0  0  0  0
   -5.7529   27.0458    3.0008 C   0  0  0  0  0  0  0  0  0  0  0  0
  1  2  1  0  0  0
  2  3  1  0  0  0
  2  4  1  0  0  0
  4  5  1  0  0  0
  5  6  2  0  0  0
  6  7  1  0  0  0
  7  8  2  0  0  0
  8 18  1  0  0  0
 18 19  1  0  0  0
 19 20  1  0  0  0
 20 21  1  0  0  0
 21 22  2  0  0  0
 22 23  1  0  0  0
 23 24  2  0  0  0
  8  9  1  0  0  0
  9 10  1  0  0  0
 10 11  1  0  0  0
 11 12  1  0  0  0
 12 13  2  0  0  0
 13 14  1  0  0  0
 14 15  2  0  0  0
 15 16  1  0  0  0
 16 17  2  0  0  0
 11  2  1  0  0  0
 17 12  1  0  0  0
  9  5  1  0  0  0
 24 20  1  0  0  0
M  END
> <minimizedAffinity>
-9.09897

$$$$
OCNT-2312229


 30 31  0  0  0  0  0  0  0  0999 V2000
   -3.9041   31.4008    6.1377 N   0  0  0  0  0  0  0  0  0  0  0  0
   -5.0712   30.7005    5.9641 C   0  0  0  0  0  0  0  0  0  0  0  0
   -5.9526   30.6134    6.8072 O   0  0  0  0  0  0  0  0  0  0  0  0
   -5.1147   30.1109    4.7292 N   0  0  0  0  0  0  0  0  0  0  0  0
   -3.1311   31.1090    5.5542 H   0  0  0  0  0  0  0  0  0  0  0  0
   -4.5750   30.5675    4.0106 H   0  0  0  0  0  0  0  0  0  0  0  0
   -3.5868   32.0517    7.3979 C   0  0  0  0  0  0  0  0  0  0  0  0
   -2.8031   31.1659    8.3936 C   0  0  0  0  0  0  0  0  0  0  0  0
   -3.7250   30.6204    9.5009 C   0  0  0  0  0  0  0  0  0  0  0  0
   -1.7073   32.0100    9.0737 C   0  0  0  0  0  0  0  0  0  0  0  0
   -1.8499   27.5547    7.5352 C   0  0  0  0  0  0  0  0  0  0  0  0
   -2.4423   28.7313    8.1223 N   0  0  0  0  0  0  0  0  0  0  0  0
   -2.1605   29.9905    7.6330 C   0  0  0  0  0  0  0  0  0  0  0  0
   -1.4035   30.1546    6.6783 O   0  0  0  0  0  0  0  0  0  0  0  0
   -2.9551   28.6216    8.9861 H   0  0  0  0  0  0  0  0  0  0  0  0
   -6.2919   29.3974    4.2872 C   0  0  0  0  0  0  0  0  0  0  0  0
   -6.0256   27.9168    4.1894 C   0  0  0  0  0  0  0  0  0  0  0  0
   -6.3661   27.0641    5.2499 C   0  0  0  0  0  0  0  0  0  0  0  0
   -6.1579   25.6870    5.1510 C   0  0  0  0  0  0  0  0  0  0  0  0
   -5.6040   25.1461    3.9915 C   0  0  0  0  0  0  0  0  0  0  0  0
   -5.2459   25.9889    2.9371 C   0  0  0  0  0  0  0  0  0  0  0  0
   -5.4751   27.3638    3.0244 C   0  0  0  0  0  0  0  0  0  0  0  0
   -4.7305   25.5198    1.7498 O   0  0  0  0  0  0  0  0  0  0  0  0
   -5.5431   24.7156    0.9847 C   0  0  0  0  0  0  0  0  0  0  0  0
   -6.5116   25.2361    0.1211 C   0  0  0  0  0  0  0  0  0  0  0  0
   -7.3345   24.3684   -0.6024 C   0  0  0  0  0  0  0  0  0  0  0  0
   -7.2031   22.9855   -0.4523 C   0  0  0  0  0  0  0  0  0  0  0  0
   -6.2510   22.4675    0.4261 C   0  0  0  0  0  0  0  0  0  0  0  0
   -5.4322   23.3349    1.1440 C   0  0  0  0  0  0  0  0  0  0  0  0
   -4.5251   22.8210    1.9882 F   0  0  0  0  0  0  0  0  0  0  0  0
 11 12  1  0  0  0
 12 13  1  0  0  0
 13 14  2  0  0  0
 13  8  1  0  0  0
  8  9  1  0  0  0
  8 10  1  0  0  0
  8  7  1  0  0  0
  7  1  1  0  0  0
  1  2  1  0  0  0
  2  3  2  0  0  0
  2  4  1  0  0  0
  4 16  1  0  0  0
 16 17  1  0  0  0
 17 18  2  0  0  0
 18 19  1  0  0  0
 19 20  2  0  0  0
 20 21  1  0  0  0
 21 23  1  0  0  0
 23 24  1  0  0  0
 24 25  2  0  0  0
 25 26  1  0  0  0
 26 27  2  0  0  0
 27 28  1  0  0  0
 28 29  2  0  0  0
 29 30  1  0  0  0
 21 22  2  0  0  0
 22 17  1  0  0  0
 29 24  1  0  0  0
 12 15  1  0  0  0
  1  5  1  0  0  0
  4  6  1  0  0  0
M  END
> <minimizedAffinity>
-10.27466

$$$$
