OCNT-2314824


 27 30  0  0  0  0  0  0  0  0999 V2000
   -5.3854   23.0366    1.4317 C   0  0  0  0  0  0  0  0  0  0  0  0
   -6.5081   23.8581    1.5934 C   0  0  0  0  0  0  0  0  0  0  0  0
   -6.4747   24.9994    2.4088 C   0  0  0  0  0  0  0  0  0  0  0  0
   -5.2788   25.3098    3.0800 C   0  0  0  0  0  0  0  0  0  0  0  0
   -4.1869   24.4774    2.8917 C   0  0  0  0  0  0  0  0  0  0  0  0
   -4.1873   23.3376    2.0865 C   0  0  0  0  0  0  0  0  0  0  0  0
   -3.1205   24.9316    3.5978 O   0  0  0  0  0  0  0  0  0  0  0  0
   -3.5067   26.0637    4.2726 C   0  0  0  0  0  0  0  0  0  0  0  0
   -4.8350   26.3423    3.9613 C   0  0  0  0  0  0  0  0  0  0  0  0
   -5.5787   27.4906    4.4404 C   0  0  0  0  0  0  0  0  0  0  0  0
   -6.2018   27.4454    5.6928 C   0  0  0  0  0  0  0  0  0  0  0  0
   -6.8877   28.5622    6.1733 C   0  0  0  0  0  0  0  0  0  0  0  0
   -6.9572   29.7234    5.4043 C   0  0  0  0  0  0  0  0  0  0  0  0
   -6.3481   29.7695    4.1509 C   0  0  0  0  0  0  0  0  0  0  0  0
   -5.6628   28.6546    3.6662 C   0  0  0  0  0  0  0  0  0  0  0  0
   -2.5011   26.6908    5.1136 C   0  0  0  0  0  0  0  0  0  0  0  0
   -1.3459   26.2808    5.2129 O   0  0  0  0  0  0  0  0  0  0  0  0
   -2.9181   27.7987    5.8357 N   0  0  0  0  0  0  0  0  0  0  0  0
   -3.9034   28.0306    5.8059 H   0  0  0  0  0  0  0  0  0  0  0  0
   -2.0065   28.5552    6.7055 C   0  0  0  0  0  0  0  0  0  0  0  0
   -2.3602   30.0504    6.8668 C   0  0  0  0  0  0  0  0  0  0  0  0
   -1.9804   29.9200    8.3671 C   0  0  0  0  0  0  0  0  0  0  0  0
   -0.2418   30.2745    8.7481 Cl  0  0  0  0  0  0  0  0  0  0  0  0
   -3.0443   30.8199    9.5112 Cl  0  0  0  0  0  0  0  0  0  0  0  0
   -2.3114   28.4092    8.2120 C   0  0  0  0  0  0  0  0  0  0  0  0
   -6.0291   20.7566    1.2092 C   0  0  0  0  0  0  0  0  0  0  0  0
   -5.5883   21.9651    0.6014 O   0  0  0  0  0  0  0  0  0  0  0  0
 26 27  1  0  0  0
 27  1  1  0  0  0
  1  2  2  0  0  0
  2  3  1  0  0  0
  3  4  2  0  0  0
  4  5  1  0  0  0
  5  6  2  0  0  0
  5  7  1  0  0  0
  7  8  1  0  0  0
  8 16  1  0  0  0
 16 17  2  0  0  0
 16 18  1  0  0  0
 18 20  1  0  0  0
 20 21  1  0  0  0
 21 22  1  0  0  0
 22 23  1  0  0  0
 22 24  1  0  0  0
 22 25  1  0  0  0
  8  9  2  0  0  0
  9 10  1  0  0  0
 10 11  2  0  0  0
 11 12  1  0  0  0
 12 13  2  0  0  0
 13 14  1  0  0  0
 14 15  2  0  0  0
  6  1  1  0  0  0
 25 20  1  0  0  0
 15 10  1  0  0  0
  9  4  1  0  0  0
 18 19  1  0  0  0
M  END
> <minimizedAffinity>
-9.19688

$$$$
OCNT-2314827


 28 31  0  0  0  0  0  0  0  0999 V2000
   -6.5349   23.7621    5.3025 C   0  0  0  0  0  0  0  0  0  0  0  0
   -7.4106   24.6187    5.4168 O   0  0  0  0  0  0  0  0  0  0  0  0
   -6.8136   22.3910    5.4576 N   0  0  0  0  0  0  0  0  0  0  0  0
   -5.9283   21.5593    6.2593 C   0  0  0  0  0  0  0  0  0  0  0  0
   -6.2534   21.7595    7.7385 C   0  0  0  0  0  0  0  0  0  0  0  0
   -7.7406   21.8102    8.0307 C   0  0  0  0  0  0  0  0  0  0  0  0
   -8.1212   21.7829    9.3847 C   0  0  0  0  0  0  0  0  0  0  0  0
   -9.4614   21.8308    9.7367 C   0  0  0  0  0  0  0  0  0  0  0  0
   -9.9144   21.7881   11.3948 Cl  0  0  0  0  0  0  0  0  0  0  0  0
  -10.4349   21.8882    8.7519 C   0  0  0  0  0  0  0  0  0  0  0  0
  -10.0745   21.9191    7.3957 C   0  0  0  0  0  0  0  0  0  0  0  0
  -11.4115   21.8681    6.3031 Cl  0  0  0  0  0  0  0  0  0  0  0  0
   -8.7195   21.9271    6.9977 C   0  0  0  0  0  0  0  0  0  0  0  0
   -8.2286   21.9432    5.5411 C   0  0  0  0  0  0  0  0  0  0  0  0
   -9.0794   22.5903    4.4371 C   0  0  0  0  0  0  0  0  0  0  0  0
   -5.4665   28.4038    5.0882 C   0  0  0  0  0  0  0  0  0  0  0  0
   -5.7925   27.6888    3.7942 C   0  0  0  0  0  0  0  0  0  0  0  0
   -6.3402   28.3440    2.9083 O   0  0  0  0  0  0  0  0  0  0  0  0
   -5.4431   26.3323    3.7282 N   0  0  0  0  0  0  0  0  0  0  0  0
   -4.8436   25.6371    4.8732 C   0  0  0  0  0  0  0  0  0  0  0  0
   -5.0864   24.1340    4.8889 C   0  0  0  0  0  0  0  0  0  0  0  0
   -4.6708   23.5304    3.6692 O   0  0  0  0  0  0  0  0  0  0  0  0
   -5.0872   24.1983    2.5445 C   0  0  0  0  0  0  0  0  0  0  0  0
   -5.0599   23.4195    1.3810 C   0  0  0  0  0  0  0  0  0  0  0  0
   -5.4690   23.9580    0.1674 C   0  0  0  0  0  0  0  0  0  0  0  0
   -5.8995   25.2774    0.1202 C   0  0  0  0  0  0  0  0  0  0  0  0
   -5.9113   26.0618    1.2819 C   0  0  0  0  0  0  0  0  0  0  0  0
   -5.4976   25.5475    2.5191 C   0  0  0  0  0  0  0  0  0  0  0  0
 16 17  1  0  0  0
 17 18  2  0  0  0
 17 19  1  0  0  0
 19 20  1  0  0  0
 20 21  1  0  0  0
 21  1  1  0  0  0
  1  2  2  0  0  0
  1  3  1  0  0  0
  3  4  1  0  0  0
  4  5  1  0  0  0
  5  6  1  0  0  0
  6  7  2  0  0  0
  7  8  1  0  0  0
  8  9  1  0  0  0
  8 10  2  0  0  0
 10 11  1  0  0  0
 11 12  1  0  0  0
 11 13  2  0  0  0
 13 14  1  0  0  0
 14 15  1  0  0  0
 21 22  1  0  0  0
 22 23  1  0  0  0
 23 24  2  0  0  0
 24 25  1  0  0  0
 25 26  2  0  0  0
 26 27  1  0  0  0
 27 28  2  0  0  0
 28 19  1  0  0  0
 14  3  1  0  0  0
 28 23  1  0  0  0
 13  6  1  0  0  0
M  END
> <minimizedAffinity>
-8.72088

$$$$
OCNT-2314844


 25 27  0  0  0  0  0  0  0  0999 V2000
   -4.2754   28.7759    6.8141 S   0  0  0  0  0  0  0  0  0  0  0  0
   -5.6935   28.5438    6.9843 O   0  0  0  0  0  0  0  0  0  0  0  0
   -3.7719   30.0037    6.2330 O   0  0  0  0  0  0  0  0  0  0  0  0
   -3.7044   27.5604    5.7265 C   0  0  0  0  0  0  0  0  0  0  0  0
   -2.5201   26.8640    5.8849 C   0  0  0  0  0  0  0  0  0  0  0  0
   -2.4014   25.9974    4.8353 N   0  0  0  0  0  0  0  0  0  0  0  0
   -3.4861   26.1178    3.9941 C   0  0  0  0  0  0  0  0  0  0  0  0
   -3.7787   25.4281    2.8093 C   0  0  0  0  0  0  0  0  0  0  0  0
   -4.9619   25.7592    2.1442 C   0  0  0  0  0  0  0  0  0  0  0  0
   -5.3651   24.9342    0.6863 Cl  0  0  0  0  0  0  0  0  0  0  0  0
   -5.8185   26.7379    2.6362 C   0  0  0  0  0  0  0  0  0  0  0  0
   -5.5108   27.4164    3.8228 C   0  0  0  0  0  0  0  0  0  0  0  0
   -4.3250   27.1054    4.5255 C   0  0  0  0  0  0  0  0  0  0  0  0
   -1.6282   25.3618    4.6888 H   0  0  0  0  0  0  0  0  0  0  0  0
   -3.4756   28.6026    8.3039 N   0  0  0  0  0  0  0  0  0  0  0  0
   -2.8915   27.7665    8.2311 H   0  0  0  0  0  0  0  0  0  0  0  0
   -1.3267   29.8362    8.6056 C   0  0  0  0  0  0  0  0  0  0  0  0
   -0.6609   30.9661    9.1018 C   0  0  0  0  0  0  0  0  0  0  0  0
   -1.3710   31.9966    9.7303 C   0  0  0  0  0  0  0  0  0  0  0  0
   -2.7538   31.9119    9.8634 C   0  0  0  0  0  0  0  0  0  0  0  0
   -3.4166   30.7965    9.3658 C   0  0  0  0  0  0  0  0  0  0  0  0
   -4.7502   30.7167    9.4982 F   0  0  0  0  0  0  0  0  0  0  0  0
   -2.7238   29.7614    8.7261 C   0  0  0  0  0  0  0  0  0  0  0  0
    0.2836   29.1517    6.9950 C   0  0  0  0  0  0  0  0  0  0  0  0
   -0.7038   28.8024    7.9582 O   0  0  0  0  0  0  0  0  0  0  0  0
 24 25  1  0  0  0
 25 17  1  0  0  0
 17 18  2  0  0  0
 18 19  1  0  0  0
 19 20  2  0  0  0
 20 21  1  0  0  0
 21 22  1  0  0  0
 21 23  2  0  0  0
 23 15  1  0  0  0
 15  1  1  0  0  0
  1  2  2  0  0  0
  1  3  2  0  0  0
  1  4  1  0  0  0
  4  5  2  0  0  0
  5  6  1  0  0  0
  6  7  1  0  0  0
  7  8  2  0  0  0
  8  9  1  0  0  0
  9 10  1  0  0  0
  9 11  2  0  0  0
 11 12  1  0  0  0
 12 13  2  0  0  0
 23 17  1  0  0  0
 13  4  1  0  0  0
 13  7  1  0  0  0
 15 16  1  0  0  0
  6 14  1  0  0  0
M  END
> <minimizedAffinity>
-9.03177

$$$$
OCNT-2314853


 26 28  0  0  0  0  0  0  0  0999 V2000
   -4.5493   27.4543    5.7011 C   0  0  0  0  0  0  0  0  0  0  0  0
   -3.0892   27.5448    5.6072 N   0  0  0  0  0  0  0  0  0  0  0  0
   -2.6463   26.6453    5.7922 H   0  0  0  0  0  0  0  0  0  0  0  0
   -2.5010   28.4129    6.5186 C   0  0  0  0  0  0  0  0  0  0  0  0
   -1.1855   28.3571    6.7521 N   0  0  0  0  0  0  0  0  0  0  0  0
   -0.6691   29.2270    7.6464 C   0  0  0  0  0  0  0  0  0  0  0  0
    0.8106   29.1147    7.8734 C   0  0  0  0  0  0  0  0  0  0  0  0
   -1.4518   30.1715    8.3179 C   0  0  0  0  0  0  0  0  0  0  0  0
   -0.9750   31.1131    9.2644 C   0  0  0  0  0  0  0  0  0  0  0  0
   -1.8477   32.0119    9.8735 C   0  0  0  0  0  0  0  0  0  0  0  0
   -3.1963   31.9798    9.5460 C   0  0  0  0  0  0  0  0  0  0  0  0
   -3.6612   31.0492    8.6124 C   0  0  0  0  0  0  0  0  0  0  0  0
   -2.8117   30.1418    7.9908 C   0  0  0  0  0  0  0  0  0  0  0  0
   -3.3278   29.2811    7.1070 N   0  0  0  0  0  0  0  0  0  0  0  0
   -5.2383   27.6269    4.3044 C   0  0  0  0  0  0  0  0  0  0  0  0
   -5.8087   24.9114    1.6549 C   0  0  0  0  0  0  0  0  0  0  0  0
   -6.3253   23.8656    2.4162 C   0  0  0  0  0  0  0  0  0  0  0  0
   -6.4977   24.0235    3.7927 C   0  0  0  0  0  0  0  0  0  0  0  0
   -6.1546   25.2251    4.4156 C   0  0  0  0  0  0  0  0  0  0  0  0
   -5.6309   26.2919    3.6719 C   0  0  0  0  0  0  0  0  0  0  0  0
   -5.4665   26.1121    2.2856 C   0  0  0  0  0  0  0  0  0  0  0  0
   -6.6492   25.3598   -0.5228 C   0  0  0  0  0  0  0  0  0  0  0  0
   -5.5909   24.8938    0.3045 O   0  0  0  0  0  0  0  0  0  0  0  0
   -6.3176   28.6580    4.3438 N   0  0  0  0  0  0  0  0  0  0  0  0
   -6.1597   29.7551    3.3952 C   0  0  0  0  0  0  0  0  0  0  0  0
   -6.5463   29.1728    5.6928 C   0  0  0  0  0  0  0  0  0  0  0  0
 22 23  1  0  0  0
 23 16  1  0  0  0
 16 17  1  0  0  0
 17 18  2  0  0  0
 18 19  1  0  0  0
 19 20  2  0  0  0
 20 15  1  0  0  0
 15  1  1  0  0  0
  1  2  1  0  0  0
  2  4  1  0  0  0
  4  5  2  0  0  0
  5  6  1  0  0  0
  6  7  1  0  0  0
  6  8  2  0  0  0
  8  9  1  0  0  0
  9 10  2  0  0  0
 10 11  1  0  0  0
 11 12  2  0  0  0
 12 13  1  0  0  0
 13 14  2  0  0  0
 15 24  1  0  0  0
 24 25  1  0  0  0
 24 26  1  0  0  0
 20 21  1  0  0  0
 21 16  2  0  0  0
 14  4  1  0  0  0
 13  8  1  0  0  0
  2  3  1  0  0  0
M  END
> <minimizedAffinity>
-9.10742

$$$$
OCNT-2314864


 30 34  0  0  0  0  0  0  0  0999 V2000
   -1.4229   26.9924    5.8080 C   0  0  0  0  0  0  0  0  0  0  0  0
   -2.4641   26.1972    5.0619 C   0  0  0  0  0  0  0  0  0  0  0  0
   -3.7433   26.0236    5.6041 C   0  0  0  0  0  0  0  0  0  0  0  0
   -4.7238   25.3056    4.9118 C   0  0  0  0  0  0  0  0  0  0  0  0
   -4.4396   24.7444    3.6627 C   0  0  0  0  0  0  0  0  0  0  0  0
   -3.1668   24.9380    3.1044 C   0  0  0  0  0  0  0  0  0  0  0  0
   -2.1883   25.6559    3.8012 C   0  0  0  0  0  0  0  0  0  0  0  0
   -5.4320   24.0170    2.9418 N   0  0  0  0  0  0  0  0  0  0  0  0
   -6.0473   22.8631    3.3870 C   0  0  0  0  0  0  0  0  0  0  0  0
   -6.8643   22.3391    2.5044 N   0  0  0  0  0  0  0  0  0  0  0  0
   -6.8289   23.1999    1.4434 C   0  0  0  0  0  0  0  0  0  0  0  0
   -7.5396   23.1240    0.2346 C   0  0  0  0  0  0  0  0  0  0  0  0
   -7.3989   24.1500   -0.7035 C   0  0  0  0  0  0  0  0  0  0  0  0
   -6.5778   25.2422   -0.4359 C   0  0  0  0  0  0  0  0  0  0  0  0
   -5.8581   25.3331    0.7623 C   0  0  0  0  0  0  0  0  0  0  0  0
   -5.9703   24.2760    1.6836 C   0  0  0  0  0  0  0  0  0  0  0  0
   -0.8753   28.2171    8.2544 O   0  0  0  0  0  0  0  0  0  0  0  0
   -1.6639   28.7663    7.4925 C   0  0  0  0  0  0  0  0  0  0  0  0
   -1.9587   28.2640    6.2423 N   0  0  0  0  0  0  0  0  0  0  0  0
   -2.8187   28.5555    5.8060 H   0  0  0  0  0  0  0  0  0  0  0  0
   -2.3800   29.9750    7.8420 C   0  0  0  0  0  0  0  0  0  0  0  0
   -2.3235   30.6738    9.0377 C   0  0  0  0  0  0  0  0  0  0  0  0
   -3.1784   31.8046    8.9462 C   0  0  0  0  0  0  0  0  0  0  0  0
   -3.5318   32.8420    9.8170 C   0  0  0  0  0  0  0  0  0  0  0  0
   -4.3975   33.8080    9.4200 N   0  0  0  0  0  0  0  0  0  0  0  0
   -4.9073   33.7535    8.1698 C   0  0  0  0  0  0  0  0  0  0  0  0
   -4.6184   32.7716    7.2334 C   0  0  0  0  0  0  0  0  0  0  0  0
   -3.7317   31.7889    7.6678 C   0  0  0  0  0  0  0  0  0  0  0  0
   -3.2236   30.6884    7.0188 N   0  0  0  0  0  0  0  0  0  0  0  0
   -3.4157   30.4598    6.0542 H   0  0  0  0  0  0  0  0  0  0  0  0
 17 18  2  0  0  0
 18 19  1  0  0  0
 19  1  1  0  0  0
  1  2  1  0  0  0
  2  3  1  0  0  0
  3  4  2  0  0  0
  4  5  1  0  0  0
  5  8  1  0  0  0
  8  9  1  0  0  0
  9 10  2  0  0  0
 10 11  1  0  0  0
 11 12  2  0  0  0
 12 13  1  0  0  0
 13 14  2  0  0  0
 14 15  1  0  0  0
 15 16  2  0  0  0
  5  6  2  0  0  0
  6  7  1  0  0  0
 18 21  1  0  0  0
 21 22  2  0  0  0
 22 23  1  0  0  0
 23 24  2  0  0  0
 24 25  1  0  0  0
 25 26  2  0  0  0
 26 27  1  0  0  0
 27 28  2  0  0  0
 28 29  1  0  0  0
  7  2  2  0  0  0
 29 21  1  0  0  0
 16  8  1  0  0  0
 28 23  1  0  0  0
 16 11  1  0  0  0
 19 20  1  0  0  0
 29 30  1  0  0  0
M  END
> <minimizedAffinity>
-10.01451

$$$$
OCNT-2314865


 25 26  0  0  0  0  0  0  0  0999 V2000
   -0.8107   27.2710    6.3070 C   0  0  0  0  0  0  0  0  0  0  0  0
   -0.6032   27.8995    7.6453 N   0  0  0  0  0  0  0  0  0  0  0  0
   -1.5069   28.1730    8.0396 H   0  0  0  0  0  0  0  0  0  0  0  0
    0.3451   29.3107    7.6002 S   0  0  0  0  0  0  0  0  0  0  0  0
    1.2949   29.2866    8.6877 O   0  0  0  0  0  0  0  0  0  0  0  0
    0.7502   29.4585    6.2191 O   0  0  0  0  0  0  0  0  0  0  0  0
   -3.8668   33.4991    8.8315 C   0  0  0  0  0  0  0  0  0  0  0  0
   -2.8012   32.4865    8.5273 C   0  0  0  0  0  0  0  0  0  0  0  0
   -1.9834   31.9877    9.5511 C   0  0  0  0  0  0  0  0  0  0  0  0
   -1.0152   31.0195    9.2766 C   0  0  0  0  0  0  0  0  0  0  0  0
   -0.8712   30.5449    7.9718 C   0  0  0  0  0  0  0  0  0  0  0  0
   -1.6924   31.0168    6.9446 C   0  0  0  0  0  0  0  0  0  0  0  0
   -2.6573   31.9849    7.2259 C   0  0  0  0  0  0  0  0  0  0  0  0
   -1.9959   26.2856    6.3930 C   0  0  0  0  0  0  0  0  0  0  0  0
   -3.1851   26.6066    5.5713 N   0  0  0  0  0  0  0  0  0  0  0  0
   -2.8557   26.4004    4.1551 C   0  0  0  0  0  0  0  0  0  0  0  0
   -3.6586   27.9968    5.7603 C   0  0  0  0  0  0  0  0  0  0  0  0
   -5.1309   28.0480    6.0336 C   0  0  0  0  0  0  0  0  0  0  0  0
   -5.9523   27.2152    5.3790 N   0  0  0  0  0  0  0  0  0  0  0  0
   -7.2237   27.5062    5.8285 O   0  0  0  0  0  0  0  0  0  0  0  0
   -7.1592   28.4850    6.7588 C   0  0  0  0  0  0  0  0  0  0  0  0
   -5.8516   28.8678    6.9543 C   0  0  0  0  0  0  0  0  0  0  0  0
   -5.3177   29.9073    7.8927 C   0  0  0  0  0  0  0  0  0  0  0  0
   -4.6611   29.2836    9.1274 C   0  0  0  0  0  0  0  0  0  0  0  0
   -6.4080   30.8953    8.3130 C   0  0  0  0  0  0  0  0  0  0  0  0
  7  8  1  0  0  0
  8  9  1  0  0  0
  9 10  2  0  0  0
 10 11  1  0  0  0
 11  4  1  0  0  0
  4  5  2  0  0  0
  4  6  2  0  0  0
  4  2  1  0  0  0
  2  1  1  0  0  0
  1 14  1  0  0  0
 14 15  1  0  0  0
 15 16  1  0  0  0
 15 17  1  0  0  0
 17 18  1  0  0  0
 18 19  2  0  0  0
 19 20  1  0  0  0
 20 21  1  0  0  0
 21 22  2  0  0  0
 22 23  1  0  0  0
 23 24  1  0  0  0
 23 25  1  0  0  0
 11 12  2  0  0  0
 12 13  1  0  0  0
 13  8  2  0  0  0
 22 18  1  0  0  0
  2  3  1  0  0  0
M  END
> <minimizedAffinity>
-7.73933

$$$$
OCNT-2314866


 22 24  0  0  0  0  0  0  0  0999 V2000
   -3.0501   27.5179    5.9245 O   0  0  0  0  0  0  0  0  0  0  0  0
   -4.1202   27.4217    5.3305 C   0  0  0  0  0  0  0  0  0  0  0  0
   -5.2614   28.1237    5.6441 N   0  0  0  0  0  0  0  0  0  0  0  0
   -4.2622   26.5641    4.2584 N   0  0  0  0  0  0  0  0  0  0  0  0
   -3.1573   25.7123    3.8489 C   0  0  0  0  0  0  0  0  0  0  0  0
   -3.7593   24.7607    2.8248 C   0  0  0  0  0  0  0  0  0  0  0  0
   -4.8362   25.6258    2.1592 C   0  0  0  0  0  0  0  0  0  0  0  0
   -5.3887   26.4372    3.3393 C   0  0  0  0  0  0  0  0  0  0  0  0
   -6.1082   27.7977    5.2069 H   0  0  0  0  0  0  0  0  0  0  0  0
   -5.8606   24.8612    1.3617 C   0  0  0  0  0  0  0  0  0  0  0  0
   -6.5130   23.7307    1.8681 C   0  0  0  0  0  0  0  0  0  0  0  0
   -6.2391   23.2951    3.1060 F   0  0  0  0  0  0  0  0  0  0  0  0
   -7.4555   23.0328    1.1171 C   0  0  0  0  0  0  0  0  0  0  0  0
   -7.7646   23.4584   -0.1718 C   0  0  0  0  0  0  0  0  0  0  0  0
   -7.1271   24.5793   -0.7002 C   0  0  0  0  0  0  0  0  0  0  0  0
   -6.1817   25.2754    0.0593 C   0  0  0  0  0  0  0  0  0  0  0  0
   -5.4067   29.1292    6.6262 C   0  0  0  0  0  0  0  0  0  0  0  0
   -4.7364   30.3332    6.4518 C   0  0  0  0  0  0  0  0  0  0  0  0
   -4.7966   31.3569    7.3326 N   0  0  0  0  0  0  0  0  0  0  0  0
   -5.5463   31.2180    8.4516 N   0  0  0  0  0  0  0  0  0  0  0  0
   -6.2108   30.0621    8.6591 C   0  0  0  0  0  0  0  0  0  0  0  0
   -6.1664   28.9968    7.7784 C   0  0  0  0  0  0  0  0  0  0  0  0
  1  2  2  0  0  0
  2  3  1  0  0  0
  3 17  1  0  0  0
 17 18  2  0  0  0
 18 19  1  0  0  0
 19 20  2  0  0  0
 20 21  1  0  0  0
 21 22  2  0  0  0
  2  4  1  0  0  0
  4  5  1  0  0  0
  5  6  1  0  0  0
  6  7  1  0  0  0
  7 10  1  0  0  0
 10 11  1  0  0  0
 11 12  1  0  0  0
 11 13  2  0  0  0
 13 14  1  0  0  0
 14 15  2  0  0  0
 15 16  1  0  0  0
  7  8  1  0  0  0
 22 17  1  0  0  0
  8  4  1  0  0  0
 16 10  2  0  0  0
  3  9  1  0  0  0
M  END
> <minimizedAffinity>
-8.70445

$$$$
OCNT-2314885


 32 34  0  0  0  0  0  0  0  0999 V2000
   -3.3996   26.5387    4.8744 N   0  0  0  0  0  0  0  0  0  0  0  0
   -2.0747   26.5146    5.2645 C   0  0  0  0  0  0  0  0  0  0  0  0
   -1.2114   25.7335    4.8839 O   0  0  0  0  0  0  0  0  0  0  0  0
   -3.9821   27.2349    5.3253 H   0  0  0  0  0  0  0  0  0  0  0  0
   -1.7627   27.5866    6.2733 C   0  0  0  0  0  0  0  0  0  0  0  0
   -0.4736   27.8876    6.4843 C   0  0  0  0  0  0  0  0  0  0  0  0
   -0.1332   28.9283    7.4643 C   0  0  0  0  0  0  0  0  0  0  0  0
    1.0296   29.2309    7.6926 O   0  0  0  0  0  0  0  0  0  0  0  0
   -1.2582   29.5793    8.1507 C   0  0  0  0  0  0  0  0  0  0  0  0
   -1.0283   30.5835    9.0961 C   0  0  0  0  0  0  0  0  0  0  0  0
   -2.1191   31.1742    9.7235 C   0  0  0  0  0  0  0  0  0  0  0  0
   -1.9571   32.1575   10.6528 O   0  0  0  0  0  0  0  0  0  0  0  0
   -3.4200   30.7786    9.4218 C   0  0  0  0  0  0  0  0  0  0  0  0
   -3.6416   29.7750    8.4766 C   0  0  0  0  0  0  0  0  0  0  0  0
   -2.5558   29.1745    7.8402 C   0  0  0  0  0  0  0  0  0  0  0  0
   -2.8302   28.1937    6.9207 O   0  0  0  0  0  0  0  0  0  0  0  0
   -1.0078   32.3376   10.7632 H   0  0  0  0  0  0  0  0  0  0  0  0
   -5.5712   23.9492    3.2810 C   0  0  0  0  0  0  0  0  0  0  0  0
   -5.2259   24.1148    1.9388 C   0  0  0  0  0  0  0  0  0  0  0  0
   -4.2773   25.0736    1.5965 C   0  0  0  0  0  0  0  0  0  0  0  0
   -3.6872   25.8588    2.5919 C   0  0  0  0  0  0  0  0  0  0  0  0
   -4.0383   25.6987    3.9407 C   0  0  0  0  0  0  0  0  0  0  0  0
   -4.9815   24.7311    4.2831 C   0  0  0  0  0  0  0  0  0  0  0  0
   -6.7795   22.7346    3.7373 S   0  0  0  0  0  0  0  0  0  0  0  0
   -6.0548   21.6318    4.3290 O   0  0  0  0  0  0  0  0  0  0  0  0
   -7.6815   22.5359    2.6254 O   0  0  0  0  0  0  0  0  0  0  0  0
   -7.6139   23.4674    4.9885 N   0  0  0  0  0  0  0  0  0  0  0  0
   -7.1346   24.2995    5.3333 H   0  0  0  0  0  0  0  0  0  0  0  0
   -9.5427   23.8798    6.3804 C   0  0  0  0  0  0  0  0  0  0  0  0
   -8.5633   22.7949    5.8968 C   0  0  0  0  0  0  0  0  0  0  0  0
   -7.8050   22.2396    7.1070 C   0  0  0  0  0  0  0  0  0  0  0  0
   -9.3698   21.6931    5.2059 C   0  0  0  0  0  0  0  0  0  0  0  0
 29 30  1  0  0  0
 30 31  1  0  0  0
 30 32  1  0  0  0
 30 27  1  0  0  0
 27 24  1  0  0  0
 24 25  2  0  0  0
 24 26  2  0  0  0
 24 18  1  0  0  0
 18 19  2  0  0  0
 19 20  1  0  0  0
 20 21  2  0  0  0
 21 22  1  0  0  0
 22  1  1  0  0  0
  1  2  1  0  0  0
  2  3  2  0  0  0
  2  5  1  0  0  0
  5  6  2  0  0  0
  6  7  1  0  0  0
  7  8  2  0  0  0
  7  9  1  0  0  0
  9 10  1  0  0  0
 10 11  2  0  0  0
 11 12  1  0  0  0
 11 13  1  0  0  0
 13 14  2  0  0  0
 14 15  1  0  0  0
 15 16  1  0  0  0
 22 23  2  0  0  0
 23 18  1  0  0  0
 16  5  1  0  0  0
 15  9  2  0  0  0
 27 28  1  0  0  0
  1  4  1  0  0  0
 12 17  1  0  0  0
M  END
> <minimizedAffinity>
-9.95205

$$$$
OCNT-2314906


 24 24  0  0  0  0  0  0  0  0999 V2000
   -3.6449   29.0325    6.0715 N   0  0  0  0  0  0  0  0  0  0  0  0
   -4.9930   28.9062    6.4694 C   0  0  0  0  0  0  0  0  0  0  0  0
   -5.3163   28.8339    7.6487 O   0  0  0  0  0  0  0  0  0  0  0  0
   -3.3950   28.7958    5.1201 H   0  0  0  0  0  0  0  0  0  0  0  0
   -2.3788   28.7243    7.0832 S   0  0  0  0  0  0  0  0  0  0  0  0
   -1.2007   29.2754    6.4568 O   0  0  0  0  0  0  0  0  0  0  0  0
   -2.4247   27.3996    7.6389 O   0  0  0  0  0  0  0  0  0  0  0  0
   -2.7739   29.8166    8.2958 N   0  0  0  0  0  0  0  0  0  0  0  0
   -3.7127   30.1622    8.0848 H   0  0  0  0  0  0  0  0  0  0  0  0
   -0.4373   30.4709    8.9985 C   0  0  0  0  0  0  0  0  0  0  0  0
   -1.8664   30.9329    8.7067 C   0  0  0  0  0  0  0  0  0  0  0  0
   -1.8761   32.0398    7.6448 C   0  0  0  0  0  0  0  0  0  0  0  0
   -2.4665   31.4986   10.0092 C   0  0  0  0  0  0  0  0  0  0  0  0
   -6.0507   28.8010    5.3338 C   0  0  0  0  0  0  0  0  0  0  0  0
   -7.4134   28.9640    6.0531 C   0  0  0  0  0  0  0  0  0  0  0  0
   -5.9501   29.9413    4.2982 C   0  0  0  0  0  0  0  0  0  0  0  0
   -5.9199   27.4629    4.5768 C   0  0  0  0  0  0  0  0  0  0  0  0
   -5.7390   27.4412    3.1797 C   0  0  0  0  0  0  0  0  0  0  0  0
   -5.6445   26.2362    2.4769 C   0  0  0  0  0  0  0  0  0  0  0  0
   -5.7398   25.0211    3.1510 C   0  0  0  0  0  0  0  0  0  0  0  0
   -5.9326   25.0105    4.5322 C   0  0  0  0  0  0  0  0  0  0  0  0
   -6.0265   26.2222    5.2355 C   0  0  0  0  0  0  0  0  0  0  0  0
   -6.0399   23.7630    5.2334 C   0  0  0  0  0  0  0  0  0  0  0  0
   -6.1182   22.7529    5.8028 N   0  0  0  0  0  0  0  0  0  0  0  0
 10 11  1  0  0  0
 11 12  1  0  0  0
 11 13  1  0  0  0
 11  8  1  0  0  0
  8  5  1  0  0  0
  5  6  2  0  0  0
  5  7  2  0  0  0
  5  1  1  0  0  0
  1  2  1  0  0  0
  2  3  2  0  0  0
  2 14  1  0  0  0
 14 15  1  0  0  0
 14 16  1  0  0  0
 14 17  1  0  0  0
 17 18  2  0  0  0
 18 19  1  0  0  0
 19 20  2  0  0  0
 20 21  1  0  0  0
 21 23  1  0  0  0
 23 24  3  0  0  0
 21 22  2  0  0  0
 22 17  1  0  0  0
  8  9  1  0  0  0
  1  4  1  0  0  0
M  END
> <minimizedAffinity>
-8.07847

$$$$
OCNT-2314919


 27 29  0  0  0  0  0  0  0  0999 V2000
   -5.8955   30.3391    7.4305 C   0  0  0  0  0  0  0  0  0  0  0  0
   -6.3625   31.6908    8.0121 C   0  0  0  0  0  0  0  0  0  0  0  0
   -5.6866   29.3263    8.5985 C   0  0  0  0  0  0  0  0  0  0  0  0
   -4.4968   28.5550    8.4478 O   0  0  0  0  0  0  0  0  0  0  0  0
   -3.7693   29.0548    8.8571 H   0  0  0  0  0  0  0  0  0  0  0  0
   -4.6473   30.4851    6.6397 N   0  0  0  0  0  0  0  0  0  0  0  0
   -4.8865   30.4143    5.6481 H   0  0  0  0  0  0  0  0  0  0  0  0
   -3.9026   31.7234    6.8235 C   0  0  0  0  0  0  0  0  0  0  0  0
   -2.7643   31.4490    7.7447 C   0  0  0  0  0  0  0  0  0  0  0  0
   -1.6561   30.6293    7.5975 C   0  0  0  0  0  0  0  0  0  0  0  0
   -1.2908   29.7392    6.4630 C   0  0  0  0  0  0  0  0  0  0  0  0
    0.4520   29.1972    6.5137 S   0  0  0  0  0  0  0  0  0  0  0  0
    0.5933   28.8738    8.3102 C   0  0  0  0  0  0  0  0  0  0  0  0
    0.3590   30.1351    9.1415 C   0  0  0  0  0  0  0  0  0  0  0  0
   -0.9344   30.7896    8.8058 C   0  0  0  0  0  0  0  0  0  0  0  0
   -1.5331   31.6333    9.6487 N   0  0  0  0  0  0  0  0  0  0  0  0
   -2.6497   32.0060    8.9947 N   0  0  0  0  0  0  0  0  0  0  0  0
   -3.5792   32.9010    9.6438 C   0  0  0  0  0  0  0  0  0  0  0  0
   -7.0122   29.7625    6.4893 C   0  0  0  0  0  0  0  0  0  0  0  0
   -5.6807   27.2148    3.2444 C   0  0  0  0  0  0  0  0  0  0  0  0
   -5.9466   26.6785    4.5054 C   0  0  0  0  0  0  0  0  0  0  0  0
   -6.3833   27.4955    5.5503 C   0  0  0  0  0  0  0  0  0  0  0  0
   -6.5546   28.8708    5.3514 C   0  0  0  0  0  0  0  0  0  0  0  0
   -6.2953   29.4034    4.0823 C   0  0  0  0  0  0  0  0  0  0  0  0
   -5.8592   28.5819    3.0361 C   0  0  0  0  0  0  0  0  0  0  0  0
   -5.8330   25.0072    2.3770 C   0  0  0  0  0  0  0  0  0  0  0  0
   -5.2581   26.3061    2.3140 O   0  0  0  0  0  0  0  0  0  0  0  0
 26 27  1  0  0  0
 27 20  1  0  0  0
 20 21  1  0  0  0
 21 22  2  0  0  0
 22 23  1  0  0  0
 23 19  1  0  0  0
 19  1  1  0  0  0
  1  2  1  0  0  0
  1  3  1  0  0  0
  3  4  1  0  0  0
  1  6  1  0  0  0
  6  8  1  0  0  0
  8  9  1  0  0  0
  9 10  2  0  0  0
 10 11  1  0  0  0
 11 12  1  0  0  0
 12 13  1  0  0  0
 13 14  1  0  0  0
 14 15  1  0  0  0
 15 16  2  0  0  0
 16 17  1  0  0  0
 17 18  1  0  0  0
 23 24  2  0  0  0
 24 25  1  0  0  0
 25 20  2  0  0  0
 17  9  1  0  0  0
 15 10  1  0  0  0
  4  5  1  0  0  0
  6  7  1  0  0  0
M  END
> <minimizedAffinity>
-8.51840

$$$$
OCNT-2314930


 27 30  0  0  0  0  0  0  0  0999 V2000
   -3.6012   26.9883    5.8670 N   0  0  0  0  0  0  0  0  0  0  0  0
   -2.2587   27.0530    6.2038 C   0  0  0  0  0  0  0  0  0  0  0  0
   -1.3727   26.9930    5.3587 O   0  0  0  0  0  0  0  0  0  0  0  0
   -4.2697   26.7818    6.5987 H   0  0  0  0  0  0  0  0  0  0  0  0
   -4.9886   25.2340    2.9690 N   0  0  0  0  0  0  0  0  0  0  0  0
   -5.7867   26.4592    2.9254 C   0  0  0  0  0  0  0  0  0  0  0  0
   -5.4369   27.1903    4.2203 C   0  0  0  0  0  0  0  0  0  0  0  0
   -4.0026   26.7581    4.4880 C   0  0  0  0  0  0  0  0  0  0  0  0
   -4.0240   25.2761    4.0701 C   0  0  0  0  0  0  0  0  0  0  0  0
   -5.7445   24.0431    0.9448 C   0  0  0  0  0  0  0  0  0  0  0  0
   -6.1632   22.8611    0.3149 C   0  0  0  0  0  0  0  0  0  0  0  0
   -6.1387   21.6561    1.0046 C   0  0  0  0  0  0  0  0  0  0  0  0
   -5.6980   21.6382    2.3205 C   0  0  0  0  0  0  0  0  0  0  0  0
   -5.3060   22.8280    2.9497 C   0  0  0  0  0  0  0  0  0  0  0  0
   -5.3453   24.0774    2.3009 C   0  0  0  0  0  0  0  0  0  0  0  0
   -6.8872   25.1452   -0.7030 C   0  0  0  0  0  0  0  0  0  0  0  0
   -5.7504   25.1789    0.1637 O   0  0  0  0  0  0  0  0  0  0  0  0
   -2.0225   27.1962    7.6968 C   0  0  0  0  0  0  0  0  0  0  0  0
   -1.4261   28.5028    8.0797 C   0  0  0  0  0  0  0  0  0  0  0  0
   -0.0941   28.6624    8.0385 N   0  0  0  0  0  0  0  0  0  0  0  0
    0.1449   29.9471    8.4982 O   0  0  0  0  0  0  0  0  0  0  0  0
   -1.0315   30.5424    8.8212 C   0  0  0  0  0  0  0  0  0  0  0  0
   -1.1895   31.8257    9.3344 C   0  0  0  0  0  0  0  0  0  0  0  0
   -2.5016   32.2255    9.6056 C   0  0  0  0  0  0  0  0  0  0  0  0
   -3.5822   31.3721    9.3667 C   0  0  0  0  0  0  0  0  0  0  0  0
   -3.3845   30.0832    8.8488 C   0  0  0  0  0  0  0  0  0  0  0  0
   -2.0718   29.6664    8.5735 C   0  0  0  0  0  0  0  0  0  0  0  0
 16 17  1  0  0  0
 17 10  1  0  0  0
 10 11  2  0  0  0
 11 12  1  0  0  0
 12 13  2  0  0  0
 13 14  1  0  0  0
 14 15  2  0  0  0
 15  5  1  0  0  0
  5  6  1  0  0  0
  6  7  1  0  0  0
  7  8  1  0  0  0
  8  1  1  0  0  0
  1  2  1  0  0  0
  2  3  2  0  0  0
  2 18  1  0  0  0
 18 19  1  0  0  0
 19 20  2  0  0  0
 20 21  1  0  0  0
 21 22  1  0  0  0
 22 23  2  0  0  0
 23 24  1  0  0  0
 24 25  2  0  0  0
 25 26  1  0  0  0
 26 27  2  0  0  0
  8  9  1  0  0  0
 15 10  1  0  0  0
  9  5  1  0  0  0
 27 19  1  0  0  0
 27 22  1  0  0  0
  1  4  1  0  0  0
M  END
> <minimizedAffinity>
-10.07240

$$$$
OCNT-2314947


 27 31  0  0  0  0  0  0  0  0999 V2000
   -5.1163   26.7829    4.8388 C   0  0  0  0  0  0  0  0  0  0  0  0
   -4.4584   26.0347    3.9797 N   0  0  0  0  0  0  0  0  0  0  0  0
   -5.2700   24.9309    3.8555 C   0  0  0  0  0  0  0  0  0  0  0  0
   -6.4036   24.9918    4.5677 N   0  0  0  0  0  0  0  0  0  0  0  0
   -6.3074   26.2230    5.2198 O   0  0  0  0  0  0  0  0  0  0  0  0
   -3.8523   31.8268    6.5486 O   0  0  0  0  0  0  0  0  0  0  0  0
   -4.0984   30.6696    6.2297 C   0  0  0  0  0  0  0  0  0  0  0  0
   -5.1958   30.3317    5.4816 N   0  0  0  0  0  0  0  0  0  0  0  0
   -5.5119   29.0847    5.0457 N   0  0  0  0  0  0  0  0  0  0  0  0
   -4.7471   28.0785    5.3726 C   0  0  0  0  0  0  0  0  0  0  0  0
   -3.5464   28.2515    6.2442 C   0  0  0  0  0  0  0  0  0  0  0  0
   -2.7367   27.2019    6.7035 C   0  0  0  0  0  0  0  0  0  0  0  0
   -1.6268   27.4599    7.5169 C   0  0  0  0  0  0  0  0  0  0  0  0
   -1.3155   28.7643    7.8896 C   0  0  0  0  0  0  0  0  0  0  0  0
   -2.1213   29.8138    7.4574 C   0  0  0  0  0  0  0  0  0  0  0  0
   -3.2339   29.5531    6.6441 C   0  0  0  0  0  0  0  0  0  0  0  0
   -5.8071   31.0872    5.1848 H   0  0  0  0  0  0  0  0  0  0  0  0
   -4.9394   23.7623    2.9785 C   0  0  0  0  0  0  0  0  0  0  0  0
   -5.1499   22.4441    3.7419 C   0  0  0  0  0  0  0  0  0  0  0  0
   -5.2639   21.2667    2.7862 C   0  0  0  0  0  0  0  0  0  0  0  0
   -6.4851   21.4487    1.8909 C   0  0  0  0  0  0  0  0  0  0  0  0
   -6.4967   22.7902    1.1996 C   0  0  0  0  0  0  0  0  0  0  0  0
   -7.2615   22.9346    0.0303 C   0  0  0  0  0  0  0  0  0  0  0  0
   -7.2877   24.1449   -0.6592 C   0  0  0  0  0  0  0  0  0  0  0  0
   -6.5463   25.2233   -0.1914 C   0  0  0  0  0  0  0  0  0  0  0  0
   -5.7944   25.0977    0.9772 C   0  0  0  0  0  0  0  0  0  0  0  0
   -5.7843   23.8950    1.7131 C   0  0  0  0  0  0  0  0  0  0  0  0
  6  7  2  0  0  0
  7  8  1  0  0  0
  8  9  1  0  0  0
  9 10  2  0  0  0
 10  1  1  0  0  0
  1  2  2  0  0  0
  2  3  1  0  0  0
  3 18  1  0  0  0
 18 19  1  0  0  0
 19 20  1  0  0  0
 20 21  1  0  0  0
 21 22  1  0  0  0
 22 23  2  0  0  0
 23 24  1  0  0  0
 24 25  2  0  0  0
 25 26  1  0  0  0
 26 27  2  0  0  0
  3  4  2  0  0  0
  4  5  1  0  0  0
 10 11  1  0  0  0
 11 12  2  0  0  0
 12 13  1  0  0  0
 13 14  2  0  0  0
 14 15  1  0  0  0
 15 16  2  0  0  0
 16  7  1  0  0  0
  5  1  1  0  0  0
 16 11  1  0  0  0
 27 18  1  0  0  0
 27 22  1  0  0  0
  8 17  1  0  0  0
M  END
> <minimizedAffinity>
-11.22634

$$$$
OCNT-2314951


 23 24  0  0  0  0  0  0  0  0999 V2000
   -5.0431   28.7802    6.4529 C   0  0  0  0  0  0  0  0  0  0  0  0
   -1.5879   26.4672    5.2166 C   0  0  0  0  0  0  0  0  0  0  0  0
   -2.7980   26.3173    4.5331 C   0  0  0  0  0  0  0  0  0  0  0  0
   -3.9258   27.0554    4.9121 C   0  0  0  0  0  0  0  0  0  0  0  0
   -5.5235   26.7576    3.9253 Br  0  0  0  0  0  0  0  0  0  0  0  0
   -3.8617   27.9635    5.9775 C   0  0  0  0  0  0  0  0  0  0  0  0
   -2.6414   28.1008    6.6669 C   0  0  0  0  0  0  0  0  0  0  0  0
   -1.5089   27.3652    6.2973 C   0  0  0  0  0  0  0  0  0  0  0  0
    0.3086   26.2087    3.7815 C   0  0  0  0  0  0  0  0  0  0  0  0
   -0.4355   25.7846    4.9144 O   0  0  0  0  0  0  0  0  0  0  0  0
   -0.2899   27.4509    6.9223 O   0  0  0  0  0  0  0  0  0  0  0  0
    0.0806   28.7018    7.4839 C   0  0  0  0  0  0  0  0  0  0  0  0
   -5.3569   29.9406    5.5012 C   0  0  0  0  0  0  0  0  0  0  0  0
   -4.3838   31.0224    5.6206 N   0  0  0  0  0  0  0  0  0  0  0  0
   -3.6446   31.0021    4.9178 H   0  0  0  0  0  0  0  0  0  0  0  0
   -3.9466   31.5225    6.8531 C   0  0  0  0  0  0  0  0  0  0  0  0
   -4.7749   32.0073    7.8722 C   0  0  0  0  0  0  0  0  0  0  0  0
   -6.1120   31.9471    7.7819 F   0  0  0  0  0  0  0  0  0  0  0  0
   -4.2162   32.5522    9.0239 C   0  0  0  0  0  0  0  0  0  0  0  0
   -2.8859   32.6697    9.2426 N   0  0  0  0  0  0  0  0  0  0  0  0
   -2.0887   32.2262    8.2455 C   0  0  0  0  0  0  0  0  0  0  0  0
   -2.5672   31.6702    7.0666 C   0  0  0  0  0  0  0  0  0  0  0  0
   -1.6967   31.2552    6.1322 F   0  0  0  0  0  0  0  0  0  0  0  0
  9 10  1  0  0  0
 10  2  1  0  0  0
  2  3  1  0  0  0
  3  4  2  0  0  0
  4  5  1  0  0  0
  4  6  1  0  0  0
  6  1  1  0  0  0
  1 13  1  0  0  0
 13 14  1  0  0  0
 14 16  1  0  0  0
 16 17  2  0  0  0
 17 18  1  0  0  0
 17 19  1  0  0  0
 19 20  2  0  0  0
 20 21  1  0  0  0
 21 22  2  0  0  0
 22 23  1  0  0  0
  6  7  2  0  0  0
  7  8  1  0  0  0
  8 11  1  0  0  0
 11 12  1  0  0  0
  8  2  2  0  0  0
 22 16  1  0  0  0
 14 15  1  0  0  0
M  END
> <minimizedAffinity>
-7.49768

$$$$
OCNT-2314960


 23 24  0  0  0  0  0  0  0  0999 V2000
   -1.8266   26.8273    6.3376 C   0  0  0  0  0  0  0  0  0  0  0  0
   -3.9257   26.8496    5.0284 C   0  0  0  0  0  0  0  0  0  0  0  0
   -3.3579   26.6448    3.9590 O   0  0  0  0  0  0  0  0  0  0  0  0
   -3.2772   26.8015    6.2618 N   0  0  0  0  0  0  0  0  0  0  0  0
   -3.7775   27.2917    7.0020 H   0  0  0  0  0  0  0  0  0  0  0  0
   -6.9853   28.3044    6.6263 C   0  0  0  0  0  0  0  0  0  0  0  0
   -5.6592   28.3022    6.0309 N   0  0  0  0  0  0  0  0  0  0  0  0
   -5.3819   29.5685    5.3328 C   0  0  0  0  0  0  0  0  0  0  0  0
   -6.1305   29.7283    4.0076 C   0  0  0  0  0  0  0  0  0  0  0  0
   -5.8476   28.5541    3.0947 C   0  0  0  0  0  0  0  0  0  0  0  0
   -6.1412   27.2270    3.7922 C   0  0  0  0  0  0  0  0  0  0  0  0
   -5.4473   27.1195    5.1622 C   0  0  0  0  0  0  0  0  0  0  0  0
   -1.3224   28.1314    6.9792 C   0  0  0  0  0  0  0  0  0  0  0  0
   -1.8687   28.2894    8.3332 N   0  0  0  0  0  0  0  0  0  0  0  0
   -2.5143   27.5463    8.5870 H   0  0  0  0  0  0  0  0  0  0  0  0
   -2.4290   29.5320    8.6612 C   0  0  0  0  0  0  0  0  0  0  0  0
   -3.7723   29.6870    8.5929 N   0  0  0  0  0  0  0  0  0  0  0  0
   -4.2898   30.9209    8.8722 C   0  0  0  0  0  0  0  0  0  0  0  0
   -3.5218   32.0314    9.2105 C   0  0  0  0  0  0  0  0  0  0  0  0
   -4.2523   33.5431    9.5064 Cl  0  0  0  0  0  0  0  0  0  0  0  0
   -2.1439   31.8807    9.2802 C   0  0  0  0  0  0  0  0  0  0  0  0
   -1.5901   30.6199    9.0006 C   0  0  0  0  0  0  0  0  0  0  0  0
    0.1296   30.4365    9.0880 Cl  0  0  0  0  0  0  0  0  0  0  0  0
  6  7  1  0  0  0
  7  8  1  0  0  0
  8  9  1  0  0  0
  9 10  1  0  0  0
 10 11  1  0  0  0
 11 12  1  0  0  0
 12  2  1  0  0  0
  2  3  2  0  0  0
  2  4  1  0  0  0
  4  1  1  0  0  0
  1 13  1  0  0  0
 13 14  1  0  0  0
 14 16  1  0  0  0
 16 17  1  0  0  0
 17 18  2  0  0  0
 18 19  1  0  0  0
 19 20  1  0  0  0
 19 21  2  0  0  0
 21 22  1  0  0  0
 22 23  1  0  0  0
 12  7  1  0  0  0
 22 16  2  0  0  0
  4  5  1  0  0  0
 14 15  1  0  0  0
M  END
> <minimizedAffinity>
-8.02861

$$$$
OCNT-2314961


 27 29  0  0  0  0  0  0  0  0999 V2000
   -5.0109   27.7775    5.0871 C   0  0  0  0  0  0  0  0  0  0  0  0
   -7.0289   28.9214    6.1869 C   0  0  0  0  0  0  0  0  0  0  0  0
   -5.7776   29.1356    5.3081 C   0  0  0  0  0  0  0  0  0  0  0  0
   -6.2394   29.7671    3.9790 C   0  0  0  0  0  0  0  0  0  0  0  0
   -4.8722   30.1480    6.0427 C   0  0  0  0  0  0  0  0  0  0  0  0
   -3.9620   27.5473    6.0908 N   0  0  0  0  0  0  0  0  0  0  0  0
   -2.7635   26.9337    5.7759 C   0  0  0  0  0  0  0  0  0  0  0  0
   -2.4303   26.6678    4.6242 O   0  0  0  0  0  0  0  0  0  0  0  0
   -4.3223   27.3688    7.0247 H   0  0  0  0  0  0  0  0  0  0  0  0
   -1.8916   26.6339    7.0081 C   0  0  0  0  0  0  0  0  0  0  0  0
   -2.2580   27.4529    8.1719 N   0  0  0  0  0  0  0  0  0  0  0  0
   -2.0833   26.9210    9.0240 H   0  0  0  0  0  0  0  0  0  0  0  0
   -1.5040   28.6974    8.2258 C   0  0  0  0  0  0  0  0  0  0  0  0
   -0.1337   28.4107    7.6973 C   0  0  0  0  0  0  0  0  0  0  0  0
    1.0397   29.2342    8.1601 C   0  0  0  0  0  0  0  0  0  0  0  0
    0.5470   29.3608    6.7464 C   0  0  0  0  0  0  0  0  0  0  0  0
   -5.9563   26.5317    5.0586 C   0  0  0  0  0  0  0  0  0  0  0  0
   -5.6051   25.5294    4.0211 N   0  0  0  0  0  0  0  0  0  0  0  0
   -5.7666   26.0772    2.6610 C   0  0  0  0  0  0  0  0  0  0  0  0
   -5.2647   25.0787    1.6046 C   0  0  0  0  0  0  0  0  0  0  0  0
   -5.7852   23.6825    1.8228 C   0  0  0  0  0  0  0  0  0  0  0  0
   -5.6786   22.7231    0.8071 C   0  0  0  0  0  0  0  0  0  0  0  0
   -6.1283   21.4200    1.0186 C   0  0  0  0  0  0  0  0  0  0  0  0
   -6.6802   21.0641    2.2458 C   0  0  0  0  0  0  0  0  0  0  0  0
   -6.7804   22.0105    3.2660 C   0  0  0  0  0  0  0  0  0  0  0  0
   -6.3224   23.3222    3.0693 C   0  0  0  0  0  0  0  0  0  0  0  0
   -6.4842   24.3479    4.1702 C   0  0  0  0  0  0  0  0  0  0  0  0
  2  3  1  0  0  0
  3  4  1  0  0  0
  3  5  1  0  0  0
  3  1  1  0  0  0
  1 17  1  0  0  0
 17 18  1  0  0  0
 18 19  1  0  0  0
 19 20  1  0  0  0
 20 21  1  0  0  0
 21 22  2  0  0  0
 22 23  1  0  0  0
 23 24  2  0  0  0
 24 25  1  0  0  0
 25 26  2  0  0  0
 26 27  1  0  0  0
  1  6  1  0  0  0
  6  7  1  0  0  0
  7  8  2  0  0  0
  7 10  1  0  0  0
 10 11  1  0  0  0
 11 13  1  0  0  0
 13 14  1  0  0  0
 14 15  1  0  0  0
 15 16  1  0  0  0
 27 18  1  0  0  0
 16 14  1  0  0  0
 26 21  1  0  0  0
  6  9  1  0  0  0
 11 12  1  0  0  0
M  END
> <minimizedAffinity>
-9.11290

$$$$
OCNT-2314962


 26 28  0  0  0  0  0  0  0  0999 V2000
   -6.0954   28.0157    4.1879 C   0  0  0  0  0  0  0  0  0  0  0  0
   -6.2329   27.0047    5.1516 C   0  0  0  0  0  0  0  0  0  0  0  0
   -6.0536   25.6653    4.8015 C   0  0  0  0  0  0  0  0  0  0  0  0
   -5.7479   25.3332    3.4788 C   0  0  0  0  0  0  0  0  0  0  0  0
   -5.6040   26.3262    2.5081 C   0  0  0  0  0  0  0  0  0  0  0  0
   -5.7865   27.6635    2.8643 C   0  0  0  0  0  0  0  0  0  0  0  0
   -5.5072   23.6291    3.0484 S   0  0  0  0  0  0  0  0  0  0  0  0
   -5.6053   22.8483    4.2626 O   0  0  0  0  0  0  0  0  0  0  0  0
   -4.3649   23.5334    2.1648 O   0  0  0  0  0  0  0  0  0  0  0  0
   -6.8788   23.3529    2.0750 N   0  0  0  0  0  0  0  0  0  0  0  0
   -7.5715   24.0646    2.3185 H   0  0  0  0  0  0  0  0  0  0  0  0
   -6.6029   23.3265    0.6300 C   0  0  0  0  0  0  0  0  0  0  0  0
   -7.6623   22.8767   -0.3364 C   0  0  0  0  0  0  0  0  0  0  0  0
   -7.2345   24.3165   -0.3053 C   0  0  0  0  0  0  0  0  0  0  0  0
   -6.3161   29.4629    4.5554 C   0  0  0  0  0  0  0  0  0  0  0  0
   -0.6692   31.8568    9.4216 C   0  0  0  0  0  0  0  0  0  0  0  0
   -1.8096   31.5999    8.7623 C   0  0  0  0  0  0  0  0  0  0  0  0
   -2.0228   32.0119    7.3249 C   0  0  0  0  0  0  0  0  0  0  0  0
   -2.9297   31.0253    6.5789 C   0  0  0  0  0  0  0  0  0  0  0  0
   -4.2113   30.7868    7.2570 N   0  0  0  0  0  0  0  0  0  0  0  0
   -5.3746   30.3882    6.6207 C   0  0  0  0  0  0  0  0  0  0  0  0
   -6.4730   30.4038    7.1693 O   0  0  0  0  0  0  0  0  0  0  0  0
   -5.2051   29.9793    5.3236 N   0  0  0  0  0  0  0  0  0  0  0  0
   -4.2877   31.1337    8.6795 C   0  0  0  0  0  0  0  0  0  0  0  0
   -2.9665   30.8742    9.4125 C   0  0  0  0  0  0  0  0  0  0  0  0
   -4.3096   29.5682    5.1179 H   0  0  0  0  0  0  0  0  0  0  0  0
 16 17  2  0  0  0
 17 18  1  0  0  0
 18 19  1  0  0  0
 19 20  1  0  0  0
 20 21  1  0  0  0
 21 22  2  0  0  0
 21 23  1  0  0  0
 23 15  1  0  0  0
 15  1  1  0  0  0
  1  2  1  0  0  0
  2  3  2  0  0  0
  3  4  1  0  0  0
  4  7  1  0  0  0
  7  8  2  0  0  0
  7  9  2  0  0  0
  7 10  1  0  0  0
 10 12  1  0  0  0
 12 13  1  0  0  0
 13 14  1  0  0  0
  4  5  2  0  0  0
  5  6  1  0  0  0
 20 24  1  0  0  0
 24 25  1  0  0  0
 25 17  1  0  0  0
  6  1  2  0  0  0
 14 12  1  0  0  0
 23 26  1  0  0  0
 10 11  1  0  0  0
M  END
> <minimizedAffinity>
-9.66529

$$$$
OCNT-2314969


 24 26  0  0  0  0  0  0  0  0999 V2000
   -2.7624   31.6564    9.2124 C   0  0  0  0  0  0  0  0  0  0  0  0
   -1.3993   31.1387    8.7040 C   0  0  0  0  0  0  0  0  0  0  0  0
   -2.0561   29.7373    8.6160 C   0  0  0  0  0  0  0  0  0  0  0  0
   -3.4233   30.5056    8.3358 C   0  0  0  0  0  0  0  0  0  0  0  0
   -4.6218   29.8383    9.0427 C   0  0  0  0  0  0  0  0  0  0  0  0
   -5.9412   30.4208    8.5516 C   0  0  0  0  0  0  0  0  0  0  0  0
   -6.1538   30.1608    7.0603 C   0  0  0  0  0  0  0  0  0  0  0  0
   -4.8501   30.1146    6.2625 C   0  0  0  0  0  0  0  0  0  0  0  0
   -3.7642   30.9756    6.8974 C   0  0  0  0  0  0  0  0  0  0  0  0
   -1.5673   28.9961    7.4367 N   0  0  0  0  0  0  0  0  0  0  0  0
   -0.1078   29.0939    7.3255 C   0  0  0  0  0  0  0  0  0  0  0  0
   -2.0026   27.5785    7.4824 C   0  0  0  0  0  0  0  0  0  0  0  0
   -2.4213   26.9890    6.1249 C   0  0  0  0  0  0  0  0  0  0  0  0
   -1.5832   26.6644    5.2885 O   0  0  0  0  0  0  0  0  0  0  0  0
   -3.7923   26.8914    5.9993 N   0  0  0  0  0  0  0  0  0  0  0  0
   -4.3908   27.2018    6.7517 H   0  0  0  0  0  0  0  0  0  0  0  0
   -4.4985   26.4255    4.9216 C   0  0  0  0  0  0  0  0  0  0  0  0
   -4.7392   27.2056    3.8931 N   0  0  0  0  0  0  0  0  0  0  0  0
   -5.4606   26.5067    2.9440 C   0  0  0  0  0  0  0  0  0  0  0  0
   -5.7551   25.2006    3.2680 C   0  0  0  0  0  0  0  0  0  0  0  0
   -5.1109   24.8405    4.8136 S   0  0  0  0  0  0  0  0  0  0  0  0
   -3.0619   33.0293    8.8783 O   0  0  0  0  0  0  0  0  0  0  0  0
   -5.0030   34.2559    8.2087 C   0  0  0  0  0  0  0  0  0  0  0  0
   -4.3018   33.5482    9.3495 C   0  0  0  0  0  0  0  0  0  0  0  0
 23 24  1  0  0  0
 24 22  1  0  0  0
 22  1  1  0  0  0
  1  2  1  0  0  0
  2  3  1  0  0  0
  3 10  1  0  0  0
 10 11  1  0  0  0
 10 12  1  0  0  0
 12 13  1  0  0  0
 13 14  2  0  0  0
 13 15  1  0  0  0
 15 17  1  0  0  0
 17 18  2  0  0  0
 18 19  1  0  0  0
 19 20  2  0  0  0
 20 21  1  0  0  0
  3  4  1  0  0  0
  4  5  1  0  0  0
  5  6  1  0  0  0
  6  7  1  0  0  0
  7  8  1  0  0  0
  8  9  1  0  0  0
  4  1  1  0  0  0
 21 17  1  0  0  0
  9  4  1  0  0  0
 15 16  1  0  0  0
M  END
> <minimizedAffinity>
-7.59178

$$$$
OCNT-2314976


 25 27  0  0  0  0  0  0  0  0999 V2000
   -3.2179   28.0077    5.8685 N   0  0  0  0  0  0  0  0  0  0  0  0
   -2.8267   26.8412    5.2612 C   0  0  0  0  0  0  0  0  0  0  0  0
   -1.8519   26.1819    5.6037 O   0  0  0  0  0  0  0  0  0  0  0  0
   -4.1570   28.3479    5.6982 H   0  0  0  0  0  0  0  0  0  0  0  0
   -3.7178   26.3760    4.1527 C   0  0  0  0  0  0  0  0  0  0  0  0
   -3.5196   25.1988    3.5279 C   0  0  0  0  0  0  0  0  0  0  0  0
   -4.3924   24.7968    2.5202 N   0  0  0  0  0  0  0  0  0  0  0  0
   -4.3503   23.6651    1.7753 N   0  0  0  0  0  0  0  0  0  0  0  0
   -5.4100   23.8102    0.9785 C   0  0  0  0  0  0  0  0  0  0  0  0
   -6.1361   24.9502    1.1510 N   0  0  0  0  0  0  0  0  0  0  0  0
   -5.4927   25.5598    2.1203 C   0  0  0  0  0  0  0  0  0  0  0  0
   -5.7224   26.7903    2.7932 C   0  0  0  0  0  0  0  0  0  0  0  0
   -4.8790   27.1801    3.7682 C   0  0  0  0  0  0  0  0  0  0  0  0
   -2.5662   28.5054    7.0776 C   0  0  0  0  0  0  0  0  0  0  0  0
   -1.7304   29.8078    6.8455 C   0  0  0  0  0  0  0  0  0  0  0  0
   -4.6895   34.2320    9.2836 C   0  0  0  0  0  0  0  0  0  0  0  0
   -3.9397   33.0877    8.6682 C   0  0  0  0  0  0  0  0  0  0  0  0
   -4.2619   32.6391    7.3828 C   0  0  0  0  0  0  0  0  0  0  0  0
   -3.5421   31.5964    6.7946 C   0  0  0  0  0  0  0  0  0  0  0  0
   -2.4803   30.9861    7.4801 C   0  0  0  0  0  0  0  0  0  0  0  0
   -2.1479   31.4535    8.7608 C   0  0  0  0  0  0  0  0  0  0  0  0
   -2.8674   32.4975    9.3459 C   0  0  0  0  0  0  0  0  0  0  0  0
   -0.3257   29.7283    7.3421 N   0  0  0  0  0  0  0  0  0  0  0  0
   -0.1635   28.7389    8.4113 C   0  0  0  0  0  0  0  0  0  0  0  0
    0.6019   29.3984    6.2497 C   0  0  0  0  0  0  0  0  0  0  0  0
 16 17  1  0  0  0
 17 18  1  0  0  0
 18 19  2  0  0  0
 19 20  1  0  0  0
 20 15  1  0  0  0
 15 14  1  0  0  0
 14  1  1  0  0  0
  1  2  1  0  0  0
  2  3  2  0  0  0
  2  5  1  0  0  0
  5  6  2  0  0  0
  6  7  1  0  0  0
  7  8  1  0  0  0
  8  9  2  0  0  0
  9 10  1  0  0  0
 10 11  2  0  0  0
 11 12  1  0  0  0
 12 13  2  0  0  0
 15 23  1  0  0  0
 23 24  1  0  0  0
 23 25  1  0  0  0
 20 21  2  0  0  0
 21 22  1  0  0  0
 22 17  2  0  0  0
 13  5  1  0  0  0
 11  7  1  0  0  0
  1  4  1  0  0  0
M  END
> <minimizedAffinity>
-9.12167

$$$$
OCNT-2314989


 28 31  0  0  0  0  0  0  0  0999 V2000
   -3.8956   27.1916    5.3224 C   0  0  0  0  0  0  0  0  0  0  0  0
   -4.4313   28.1947    5.9955 N   0  0  0  0  0  0  0  0  0  0  0  0
   -3.4106   28.7793    6.6934 C   0  0  0  0  0  0  0  0  0  0  0  0
   -3.4472   29.8932    7.5411 C   0  0  0  0  0  0  0  0  0  0  0  0
   -2.2443   30.3125    8.1235 C   0  0  0  0  0  0  0  0  0  0  0  0
   -1.0417   29.6349    7.8961 C   0  0  0  0  0  0  0  0  0  0  0  0
   -1.0018   28.5142    7.0595 C   0  0  0  0  0  0  0  0  0  0  0  0
   -2.2090   28.1152    6.4706 C   0  0  0  0  0  0  0  0  0  0  0  0
   -2.5514   27.0813    5.6268 N   0  0  0  0  0  0  0  0  0  0  0  0
   -1.6607   26.0301    5.1937 C   0  0  0  0  0  0  0  0  0  0  0  0
   -6.7785   23.7700    1.7569 N   0  0  0  0  0  0  0  0  0  0  0  0
   -7.2664   22.4929    2.2876 C   0  0  0  0  0  0  0  0  0  0  0  0
   -7.8925   22.6895    3.6561 C   0  0  0  0  0  0  0  0  0  0  0  0
   -6.8335   23.2102    4.6110 C   0  0  0  0  0  0  0  0  0  0  0  0
   -6.0806   24.3764    4.0195 C   0  0  0  0  0  0  0  0  0  0  0  0
   -5.3604   25.2097    4.8998 C   0  0  0  0  0  0  0  0  0  0  0  0
   -4.6391   26.3063    4.4249 C   0  0  0  0  0  0  0  0  0  0  0  0
   -4.6155   26.5376    3.0517 C   0  0  0  0  0  0  0  0  0  0  0  0
   -5.3218   25.7046    2.1734 C   0  0  0  0  0  0  0  0  0  0  0  0
   -6.0597   24.5976    2.6233 C   0  0  0  0  0  0  0  0  0  0  0  0
   -7.7344   23.1216   -0.4384 C   0  0  0  0  0  0  0  0  0  0  0  0
   -6.6137   23.8397    0.3000 C   0  0  0  0  0  0  0  0  0  0  0  0
   -2.2632   31.7284    9.1884 S   0  0  0  0  0  0  0  0  0  0  0  0
   -0.6214   31.9293    9.5083 N   0  0  0  0  0  0  0  0  0  0  0  0
   -2.9097   31.3663   10.4274 O   0  0  0  0  0  0  0  0  0  0  0  0
   -2.6593   32.8807    8.4130 O   0  0  0  0  0  0  0  0  0  0  0  0
   -0.3172   32.8209    9.1126 H   0  0  0  0  0  0  0  0  0  0  0  0
   -0.0492   31.1532    9.1774 H   0  0  0  0  0  0  0  0  0  0  0  0
 21 22  1  0  0  0
 22 11  1  0  0  0
 11 12  1  0  0  0
 12 13  1  0  0  0
 13 14  1  0  0  0
 14 15  1  0  0  0
 15 16  1  0  0  0
 16 17  2  0  0  0
 17  1  1  0  0  0
  1  2  2  0  0  0
  2  3  1  0  0  0
  3  4  2  0  0  0
  4  5  1  0  0  0
  5 23  1  0  0  0
 23 24  1  0  0  0
 23 25  2  0  0  0
 23 26  2  0  0  0
  5  6  2  0  0  0
  6  7  1  0  0  0
  7  8  2  0  0  0
  8  9  1  0  0  0
  9 10  1  0  0  0
 17 18  1  0  0  0
 18 19  2  0  0  0
 19 20  1  0  0  0
 20 11  1  0  0  0
 20 15  2  0  0  0
  9  1  1  0  0  0
  8  3  1  0  0  0
 24 27  1  0  0  0
 24 28  1  0  0  0
M  END
> <minimizedAffinity>
-9.82898

$$$$
OCNT-2314990


 24 26  0  0  0  0  0  0  0  0999 V2000
   -5.0884   24.8513    4.8265 O   0  0  0  0  0  0  0  0  0  0  0  0
   -6.1320   25.4939    4.8935 C   0  0  0  0  0  0  0  0  0  0  0  0
   -7.3406   24.9520    5.2821 N   0  0  0  0  0  0  0  0  0  0  0  0
   -8.1716   25.4233    4.9468 H   0  0  0  0  0  0  0  0  0  0  0  0
   -6.1182   26.9247    4.5033 C   0  0  0  0  0  0  0  0  0  0  0  0
   -5.8546   27.3416    3.1931 C   0  0  0  0  0  0  0  0  0  0  0  0
   -5.8502   28.7026    2.8935 C   0  0  0  0  0  0  0  0  0  0  0  0
   -6.1164   29.6009    3.9131 C   0  0  0  0  0  0  0  0  0  0  0  0
   -6.3905   29.2327    5.1811 N   0  0  0  0  0  0  0  0  0  0  0  0
   -6.3982   27.9096    5.4520 C   0  0  0  0  0  0  0  0  0  0  0  0
   -6.7046   27.6254    6.7537 O   0  0  0  0  0  0  0  0  0  0  0  0
   -6.8179   26.6546    6.8233 H   0  0  0  0  0  0  0  0  0  0  0  0
   -7.4917   23.5108    5.4711 C   0  0  0  0  0  0  0  0  0  0  0  0
   -8.3565   23.0955    6.6659 C   0  0  0  0  0  0  0  0  0  0  0  0
   -8.7103   21.7023    6.3755 N   0  0  0  0  0  0  0  0  0  0  0  0
   -8.8983   21.6049    4.9242 C   0  0  0  0  0  0  0  0  0  0  0  0
   -8.2575   22.8586    4.3055 C   0  0  0  0  0  0  0  0  0  0  0  0
   -9.5520   21.4281    6.8799 H   0  0  0  0  0  0  0  0  0  0  0  0
   -7.4167   22.6023    3.0739 C   0  0  0  0  0  0  0  0  0  0  0  0
   -6.6903   21.4070    2.9593 C   0  0  0  0  0  0  0  0  0  0  0  0
   -5.9185   21.1484    1.8249 C   0  0  0  0  0  0  0  0  0  0  0  0
   -5.8617   22.0804    0.7916 C   0  0  0  0  0  0  0  0  0  0  0  0
   -6.5738   23.2728    0.8930 C   0  0  0  0  0  0  0  0  0  0  0  0
   -7.3454   23.5334    2.0267 C   0  0  0  0  0  0  0  0  0  0  0  0
  1  2  2  0  0  0
  2  3  1  0  0  0
  3 13  1  0  0  0
 13 14  1  0  0  0
 14 15  1  0  0  0
 15 16  1  0  0  0
 16 17  1  0  0  0
 17 19  1  0  0  0
 19 20  2  0  0  0
 20 21  1  0  0  0
 21 22  2  0  0  0
 22 23  1  0  0  0
 23 24  2  0  0  0
  2  5  1  0  0  0
  5  6  1  0  0  0
  6  7  2  0  0  0
  7  8  1  0  0  0
  8  9  2  0  0  0
  9 10  1  0  0  0
 10 11  1  0  0  0
 17 13  1  0  0  0
 24 19  1  0  0  0
 10  5  2  0  0  0
  3  4  1  0  0  0
 15 18  1  0  0  0
 11 12  1  0  0  0
M  END
> <minimizedAffinity>
-8.33258

$$$$
OCNT-2315001


 22 24  0  0  0  0  0  0  0  0999 V2000
   -5.2000   28.6860    7.4191 N   0  0  0  0  0  0  0  0  0  0  0  0
   -6.2141   28.8132    6.5063 C   0  0  0  0  0  0  0  0  0  0  0  0
   -7.1296   29.6215    6.6010 O   0  0  0  0  0  0  0  0  0  0  0  0
   -4.3910   28.1270    7.1840 H   0  0  0  0  0  0  0  0  0  0  0  0
   -6.0958   27.9379    5.3131 C   0  0  0  0  0  0  0  0  0  0  0  0
   -6.1641   26.6023    5.3984 C   0  0  0  0  0  0  0  0  0  0  0  0
   -6.0759   25.8501    4.1531 C   0  0  0  0  0  0  0  0  0  0  0  0
   -6.2836   24.4664    4.1343 C   0  0  0  0  0  0  0  0  0  0  0  0
   -6.1637   23.7545    2.9382 C   0  0  0  0  0  0  0  0  0  0  0  0
   -5.8280   24.4194    1.7594 C   0  0  0  0  0  0  0  0  0  0  0  0
   -5.6159   25.7978    1.7739 C   0  0  0  0  0  0  0  0  0  0  0  0
   -5.7498   26.5121    2.9645 C   0  0  0  0  0  0  0  0  0  0  0  0
   -5.5022   27.8562    2.8978 O   0  0  0  0  0  0  0  0  0  0  0  0
   -5.9748   28.6526    4.0000 C   0  0  0  0  0  0  0  0  0  0  0  0
   -5.6918   28.8419    9.8333 C   0  0  0  0  0  0  0  0  0  0  0  0
   -5.1125   29.5349    8.5960 C   0  0  0  0  0  0  0  0  0  0  0  0
   -3.6707   29.9689    8.7986 C   0  0  0  0  0  0  0  0  0  0  0  0
   -3.3885   31.1023    9.5774 C   0  0  0  0  0  0  0  0  0  0  0  0
   -2.0731   31.5343    9.7579 C   0  0  0  0  0  0  0  0  0  0  0  0
   -1.0229   30.8442    9.1573 C   0  0  0  0  0  0  0  0  0  0  0  0
   -1.2866   29.7242    8.3723 C   0  0  0  0  0  0  0  0  0  0  0  0
   -2.6015   29.2908    8.1902 C   0  0  0  0  0  0  0  0  0  0  0  0
 15 16  1  0  0  0
 16  1  1  0  0  0
  1  2  1  0  0  0
  2  3  2  0  0  0
  2  5  1  0  0  0
  5  6  2  0  0  0
  6  7  1  0  0  0
  7  8  2  0  0  0
  8  9  1  0  0  0
  9 10  2  0  0  0
 10 11  1  0  0  0
 11 12  2  0  0  0
 12 13  1  0  0  0
 13 14  1  0  0  0
 16 17  1  0  0  0
 17 18  2  0  0  0
 18 19  1  0  0  0
 19 20  2  0  0  0
 20 21  1  0  0  0
 21 22  2  0  0  0
 14  5  1  0  0  0
 22 17  1  0  0  0
 12  7  1  0  0  0
  1  4  1  0  0  0
M  END
> <minimizedAffinity>
-9.12472

$$$$
OCNT-2315017


 27 29  0  0  0  0  0  0  0  0999 V2000
   -4.5713   26.2197    2.8343 C   0  0  0  0  0  0  0  0  0  0  0  0
   -5.8460   26.8274    2.5826 O   0  0  0  0  0  0  0  0  0  0  0  0
   -5.7679   27.3283    1.7504 H   0  0  0  0  0  0  0  0  0  0  0  0
   -4.5474   25.6693    4.2713 C   0  0  0  0  0  0  0  0  0  0  0  0
   -1.7608   28.8433    7.6949 N   0  0  0  0  0  0  0  0  0  0  0  0
   -2.6257   29.8641    7.9028 N   0  0  0  0  0  0  0  0  0  0  0  0
   -3.7258   29.6133    7.1924 N   0  0  0  0  0  0  0  0  0  0  0  0
   -3.5282   28.4327    6.5429 C   0  0  0  0  0  0  0  0  0  0  0  0
   -2.2921   27.9181    6.8452 C   0  0  0  0  0  0  0  0  0  0  0  0
   -1.7326   26.7644    6.4117 N   0  0  0  0  0  0  0  0  0  0  0  0
   -2.5116   26.1174    5.5924 C   0  0  0  0  0  0  0  0  0  0  0  0
   -3.7748   26.5317    5.1622 N   0  0  0  0  0  0  0  0  0  0  0  0
   -4.3892   27.6980    5.6520 C   0  0  0  0  0  0  0  0  0  0  0  0
   -5.5367   28.0333    5.3707 O   0  0  0  0  0  0  0  0  0  0  0  0
    0.6461   29.2507    7.4056 C   0  0  0  0  0  0  0  0  0  0  0  0
   -0.4707   28.8265    8.3422 C   0  0  0  0  0  0  0  0  0  0  0  0
   -4.2552   25.1530    1.7635 C   0  0  0  0  0  0  0  0  0  0  0  0
   -5.4544   24.5055    1.0882 C   0  0  0  0  0  0  0  0  0  0  0  0
   -6.0876   25.1942    0.0364 C   0  0  0  0  0  0  0  0  0  0  0  0
   -7.1906   24.6532   -0.6235 C   0  0  0  0  0  0  0  0  0  0  0  0
   -7.6790   23.4076   -0.2527 C   0  0  0  0  0  0  0  0  0  0  0  0
   -7.0600   22.7002    0.7758 C   0  0  0  0  0  0  0  0  0  0  0  0
   -5.9445   23.2285    1.4574 C   0  0  0  0  0  0  0  0  0  0  0  0
   -5.3103   22.3993    2.5553 C   0  0  0  0  0  0  0  0  0  0  0  0
   -5.4751   21.0627    2.3510 F   0  0  0  0  0  0  0  0  0  0  0  0
   -3.9668   22.5880    2.6821 F   0  0  0  0  0  0  0  0  0  0  0  0
   -5.8380   22.6631    3.7823 F   0  0  0  0  0  0  0  0  0  0  0  0
 15 16  1  0  0  0
 16  5  1  0  0  0
  5  6  1  0  0  0
  6  7  2  0  0  0
  7  8  1  0  0  0
  8  9  2  0  0  0
  9 10  1  0  0  0
 10 11  2  0  0  0
 11 12  1  0  0  0
 12  4  1  0  0  0
  4  1  1  0  0  0
  1  2  1  0  0  0
  1 17  1  0  0  0
 17 18  1  0  0  0
 18 19  2  0  0  0
 19 20  1  0  0  0
 20 21  2  0  0  0
 21 22  1  0  0  0
 22 23  2  0  0  0
 23 24  1  0  0  0
 24 25  1  0  0  0
 24 26  1  0  0  0
 24 27  1  0  0  0
 12 13  1  0  0  0
 13 14  2  0  0  0
  9  5  1  0  0  0
 23 18  1  0  0  0
 13  8  1  0  0  0
  2  3  1  0  0  0
M  END
> <minimizedAffinity>
-9.50012

$$$$
OCNT-2315024


 25 28  0  0  0  0  0  0  0  0999 V2000
   -1.7551   29.3475    7.3959 N   0  0  0  0  0  0  0  0  0  0  0  0
   -2.3842   30.4996    7.7537 N   0  0  0  0  0  0  0  0  0  0  0  0
   -3.6364   30.3325    7.3104 C   0  0  0  0  0  0  0  0  0  0  0  0
   -3.8039   29.1033    6.6674 C   0  0  0  0  0  0  0  0  0  0  0  0
   -2.5817   28.4818    6.7272 C   0  0  0  0  0  0  0  0  0  0  0  0
   -2.2601   27.2597    6.2392 N   0  0  0  0  0  0  0  0  0  0  0  0
   -3.2628   26.6674    5.6611 C   0  0  0  0  0  0  0  0  0  0  0  0
   -4.5413   27.1939    5.5001 N   0  0  0  0  0  0  0  0  0  0  0  0
   -4.9001   28.4397    6.0233 C   0  0  0  0  0  0  0  0  0  0  0  0
   -6.0204   28.9324    5.9326 O   0  0  0  0  0  0  0  0  0  0  0  0
    0.5673   29.3482    6.5345 C   0  0  0  0  0  0  0  0  0  0  0  0
   -0.3503   29.1672    7.7429 C   0  0  0  0  0  0  0  0  0  0  0  0
    0.0712   30.0568    8.9117 C   0  0  0  0  0  0  0  0  0  0  0  0
   -5.5727   26.4074    4.8438 C   0  0  0  0  0  0  0  0  0  0  0  0
   -5.4348   26.5084    3.3202 C   0  0  0  0  0  0  0  0  0  0  0  0
   -5.9852   27.4181    2.6947 O   0  0  0  0  0  0  0  0  0  0  0  0
   -4.7063   25.5178    2.6734 N   0  0  0  0  0  0  0  0  0  0  0  0
   -4.6295   25.5533    1.2029 C   0  0  0  0  0  0  0  0  0  0  0  0
   -5.6532   24.5853    0.5839 C   0  0  0  0  0  0  0  0  0  0  0  0
   -5.6042   23.2852    1.3335 C   0  0  0  0  0  0  0  0  0  0  0  0
   -5.0072   23.1225    2.5729 C   0  0  0  0  0  0  0  0  0  0  0  0
   -5.1450   21.7760    3.0323 C   0  0  0  0  0  0  0  0  0  0  0  0
   -5.8377   20.9886    2.1367 C   0  0  0  0  0  0  0  0  0  0  0  0
   -6.3204   21.8623    0.7459 S   0  0  0  0  0  0  0  0  0  0  0  0
   -4.2993   24.2435    3.2838 C   0  0  0  0  0  0  0  0  0  0  0  0
 11 12  1  0  0  0
 12 13  1  0  0  0
 12  1  1  0  0  0
  1  2  1  0  0  0
  2  3  2  0  0  0
  3  4  1  0  0  0
  4  5  2  0  0  0
  5  6  1  0  0  0
  6  7  2  0  0  0
  7  8  1  0  0  0
  8 14  1  0  0  0
 14 15  1  0  0  0
 15 16  2  0  0  0
 15 17  1  0  0  0
 17 18  1  0  0  0
 18 19  1  0  0  0
 19 20  1  0  0  0
 20 21  2  0  0  0
 21 22  1  0  0  0
 22 23  2  0  0  0
 23 24  1  0  0  0
 21 25  1  0  0  0
  8  9  1  0  0  0
  9 10  2  0  0  0
  5  1  1  0  0  0
 25 17  1  0  0  0
  9  4  1  0  0  0
 24 20  1  0  0  0
M  END
> <minimizedAffinity>
-8.89122

$$$$
OCNT-2315030


 28 31  0  0  0  0  0  0  0  0999 V2000
   -5.7292   27.4896    5.6506 O   0  0  0  0  0  0  0  0  0  0  0  0
   -5.1115   26.8027    4.8415 C   0  0  0  0  0  0  0  0  0  0  0  0
   -5.7647   26.2248    3.7790 N   0  0  0  0  0  0  0  0  0  0  0  0
   -5.1647   25.4377    2.8169 C   0  0  0  0  0  0  0  0  0  0  0  0
   -3.8410   25.2181    2.9245 C   0  0  0  0  0  0  0  0  0  0  0  0
   -3.0764   25.7878    4.0110 C   0  0  0  0  0  0  0  0  0  0  0  0
   -3.6469   26.5573    4.9571 C   0  0  0  0  0  0  0  0  0  0  0  0
   -6.7534   26.4227    3.7483 H   0  0  0  0  0  0  0  0  0  0  0  0
   -5.9578   24.8511    1.6963 C   0  0  0  0  0  0  0  0  0  0  0  0
   -6.0720   25.4609    0.4462 C   0  0  0  0  0  0  0  0  0  0  0  0
   -6.8331   24.8474   -0.5503 C   0  0  0  0  0  0  0  0  0  0  0  0
   -7.4644   23.6417   -0.2838 C   0  0  0  0  0  0  0  0  0  0  0  0
   -7.3077   23.0960    0.9751 C   0  0  0  0  0  0  0  0  0  0  0  0
   -6.5769   23.6692    1.9567 N   0  0  0  0  0  0  0  0  0  0  0  0
   -2.7764   27.1056    6.0466 C   0  0  0  0  0  0  0  0  0  0  0  0
   -2.0521   26.3459    6.6874 O   0  0  0  0  0  0  0  0  0  0  0  0
   -2.8697   28.4629    6.2394 N   0  0  0  0  0  0  0  0  0  0  0  0
   -3.5103   29.0007    5.6433 H   0  0  0  0  0  0  0  0  0  0  0  0
   -2.1832   29.2740    7.1814 C   0  0  0  0  0  0  0  0  0  0  0  0
   -0.8304   29.1058    7.4988 C   0  0  0  0  0  0  0  0  0  0  0  0
   -0.2167   29.9373    8.4338 C   0  0  0  0  0  0  0  0  0  0  0  0
   -0.9504   30.9412    9.0566 C   0  0  0  0  0  0  0  0  0  0  0  0
   -2.3070   31.1198    8.7469 C   0  0  0  0  0  0  0  0  0  0  0  0
   -3.0655   32.1250    9.3624 C   0  0  0  0  0  0  0  0  0  0  0  0
   -4.4067   32.2794    9.0370 C   0  0  0  0  0  0  0  0  0  0  0  0
   -4.9475   31.4197    8.1025 C   0  0  0  0  0  0  0  0  0  0  0  0
   -4.2490   30.4405    7.4890 N   0  0  0  0  0  0  0  0  0  0  0  0
   -2.9412   30.2837    7.8010 C   0  0  0  0  0  0  0  0  0  0  0  0
  1  2  2  0  0  0
  2  3  1  0  0  0
  3  4  1  0  0  0
  4  9  1  0  0  0
  9 10  2  0  0  0
 10 11  1  0  0  0
 11 12  2  0  0  0
 12 13  1  0  0  0
 13 14  2  0  0  0
  4  5  2  0  0  0
  5  6  1  0  0  0
  6  7  2  0  0  0
  7 15  1  0  0  0
 15 16  2  0  0  0
 15 17  1  0  0  0
 17 19  1  0  0  0
 19 20  1  0  0  0
 20 21  2  0  0  0
 21 22  1  0  0  0
 22 23  2  0  0  0
 23 24  1  0  0  0
 24 25  2  0  0  0
 25 26  1  0  0  0
 26 27  2  0  0  0
 27 28  1  0  0  0
  7  2  1  0  0  0
 28 19  2  0  0  0
 14  9  1  0  0  0
 28 23  1  0  0  0
  3  8  1  0  0  0
 17 18  1  0  0  0
M  END
> <minimizedAffinity>
-10.72448

$$$$
OCNT-2315032


 26 28  0  0  0  0  0  0  0  0999 V2000
   -4.2573   29.9656    5.9327 N   0  0  0  0  0  0  0  0  0  0  0  0
   -3.8367   29.7189    5.0376 H   0  0  0  0  0  0  0  0  0  0  0  0
   -3.9261   31.3642    6.2182 C   0  0  0  0  0  0  0  0  0  0  0  0
   -1.9973   30.9803    7.8466 C   0  0  0  0  0  0  0  0  0  0  0  0
   -1.4000   31.2104    9.0907 C   0  0  0  0  0  0  0  0  0  0  0  0
   -2.0306   32.0176   10.0411 C   0  0  0  0  0  0  0  0  0  0  0  0
   -3.2595   32.6037    9.7570 C   0  0  0  0  0  0  0  0  0  0  0  0
   -3.8615   32.3842    8.5199 C   0  0  0  0  0  0  0  0  0  0  0  0
   -3.2414   31.5731    7.5530 C   0  0  0  0  0  0  0  0  0  0  0  0
   -1.4509   30.2129    6.8507 O   0  0  0  0  0  0  0  0  0  0  0  0
   -0.8992   28.9447    7.2185 C   0  0  0  0  0  0  0  0  0  0  0  0
    1.3049   29.3915    7.9314 F   0  0  0  0  0  0  0  0  0  0  0  0
    0.5826   28.9271    6.8788 C   0  0  0  0  0  0  0  0  0  0  0  0
    0.8218   29.7774    5.8466 F   0  0  0  0  0  0  0  0  0  0  0  0
   -5.7031   29.7208    5.8854 C   0  0  0  0  0  0  0  0  0  0  0  0
   -6.1728   29.3340    4.4727 C   0  0  0  0  0  0  0  0  0  0  0  0
   -6.0562   27.8562    4.1747 C   0  0  0  0  0  0  0  0  0  0  0  0
   -6.2114   26.9113    5.1959 C   0  0  0  0  0  0  0  0  0  0  0  0
   -6.1136   25.5378    4.9466 C   0  0  0  0  0  0  0  0  0  0  0  0
   -5.8551   25.1353    3.6326 C   0  0  0  0  0  0  0  0  0  0  0  0
   -5.7112   23.8739    3.1005 N   0  0  0  0  0  0  0  0  0  0  0  0
   -5.4662   23.9524    1.7549 C   0  0  0  0  0  0  0  0  0  0  0  0
   -5.4524   25.2842    1.4077 C   0  0  0  0  0  0  0  0  0  0  0  0
   -5.6974   26.0425    2.5862 C   0  0  0  0  0  0  0  0  0  0  0  0
   -5.8013   27.4207    2.8613 C   0  0  0  0  0  0  0  0  0  0  0  0
   -5.7790   23.0181    3.6331 H   0  0  0  0  0  0  0  0  0  0  0  0
 12 13  1  0  0  0
 13 14  1  0  0  0
 13 11  1  0  0  0
 11 10  1  0  0  0
 10  4  1  0  0  0
  4  5  2  0  0  0
  5  6  1  0  0  0
  6  7  2  0  0  0
  7  8  1  0  0  0
  8  9  2  0  0  0
  9  3  1  0  0  0
  3  1  1  0  0  0
  1 15  1  0  0  0
 15 16  1  0  0  0
 16 17  1  0  0  0
 17 18  2  0  0  0
 18 19  1  0  0  0
 19 20  2  0  0  0
 20 21  1  0  0  0
 21 22  1  0  0  0
 22 23  2  0  0  0
 23 24  1  0  0  0
 24 25  2  0  0  0
  9  4  1  0  0  0
 25 17  1  0  0  0
 24 20  1  0  0  0
  1  2  1  0  0  0
 21 26  1  0  0  0
M  END
> <minimizedAffinity>
-9.20807

$$$$
OCNT-2315035


 35 39  0  0  0  0  0  0  0  0999 V2000
   -5.2174   25.7874    4.2662 C   0  0  0  0  0  0  0  0  0  0  0  0
   -4.6041   24.9270    4.9144 O   0  0  0  0  0  0  0  0  0  0  0  0
   -5.2880   27.0881    4.7292 N   0  0  0  0  0  0  0  0  0  0  0  0
   -5.6202   28.2641    3.9321 C   0  0  0  0  0  0  0  0  0  0  0  0
   -6.6566   29.1355    4.6332 C   0  0  0  0  0  0  0  0  0  0  0  0
   -6.2999   29.3962    6.0727 C   0  0  0  0  0  0  0  0  0  0  0  0
   -6.9358   30.4436    6.7564 C   0  0  0  0  0  0  0  0  0  0  0  0
   -6.6681   30.6753    8.1034 C   0  0  0  0  0  0  0  0  0  0  0  0
   -5.7726   29.8565    8.7824 C   0  0  0  0  0  0  0  0  0  0  0  0
   -5.1446   28.8047    8.1154 C   0  0  0  0  0  0  0  0  0  0  0  0
   -5.3949   28.5612    6.7532 C   0  0  0  0  0  0  0  0  0  0  0  0
   -4.7010   27.3919    6.0596 C   0  0  0  0  0  0  0  0  0  0  0  0
   -7.6770   23.7054   -0.0879 C   0  0  0  0  0  0  0  0  0  0  0  0
   -6.3619   23.7145    0.5505 N   0  0  0  0  0  0  0  0  0  0  0  0
   -5.7532   25.0509    0.4948 C   0  0  0  0  0  0  0  0  0  0  0  0
   -4.9455   25.4142    1.7413 C   0  0  0  0  0  0  0  0  0  0  0  0
   -5.8720   25.3523    2.9558 C   0  0  0  0  0  0  0  0  0  0  0  0
   -6.6755   24.0484    3.0382 C   0  0  0  0  0  0  0  0  0  0  0  0
   -6.3833   23.0941    1.8765 C   0  0  0  0  0  0  0  0  0  0  0  0
   -3.1618   27.6134    5.9787 C   0  0  0  0  0  0  0  0  0  0  0  0
   -2.7669   28.9879    6.2416 N   0  0  0  0  0  0  0  0  0  0  0  0
   -1.4957   29.3227    6.6537 C   0  0  0  0  0  0  0  0  0  0  0  0
   -0.6203   28.4826    6.8410 O   0  0  0  0  0  0  0  0  0  0  0  0
   -3.4312   29.7231    5.9923 H   0  0  0  0  0  0  0  0  0  0  0  0
   -1.2913   30.8227    6.7973 C   0  0  0  0  0  0  0  0  0  0  0  0
   -1.8929   31.4156    8.0549 C   0  0  0  0  0  0  0  0  0  0  0  0
   -1.2870   31.0967    9.2856 C   0  0  0  0  0  0  0  0  0  0  0  0
   -1.7795   31.6161   10.4776 C   0  0  0  0  0  0  0  0  0  0  0  0
   -2.8881   32.4586   10.4590 C   0  0  0  0  0  0  0  0  0  0  0  0
   -3.5210   32.7929    9.2515 C   0  0  0  0  0  0  0  0  0  0  0  0
   -4.6409   33.6432    9.2577 C   0  0  0  0  0  0  0  0  0  0  0  0
   -5.2877   33.9906    8.0714 C   0  0  0  0  0  0  0  0  0  0  0  0
   -4.8229   33.4881    6.8630 C   0  0  0  0  0  0  0  0  0  0  0  0
   -3.7112   32.6402    6.8405 C   0  0  0  0  0  0  0  0  0  0  0  0
   -3.0307   32.2714    8.0261 C   0  0  0  0  0  0  0  0  0  0  0  0
 13 14  1  0  0  0
 14 15  1  0  0  0
 15 16  1  0  0  0
 16 17  1  0  0  0
 17  1  1  0  0  0
  1  2  2  0  0  0
  1  3  1  0  0  0
  3  4  1  0  0  0
  4  5  1  0  0  0
  5  6  1  0  0  0
  6  7  2  0  0  0
  7  8  1  0  0  0
  8  9  2  0  0  0
  9 10  1  0  0  0
 10 11  2  0  0  0
 11 12  1  0  0  0
 12 20  1  0  0  0
 20 21  1  0  0  0
 21 22  1  0  0  0
 22 23  2  0  0  0
 22 25  1  0  0  0
 25 26  1  0  0  0
 26 27  2  0  0  0
 27 28  1  0  0  0
 28 29  2  0  0  0
 29 30  1  0  0  0
 30 31  2  0  0  0
 31 32  1  0  0  0
 32 33  2  0  0  0
 33 34  1  0  0  0
 34 35  2  0  0  0
 17 18  1  0  0  0
 18 19  1  0  0  0
 19 14  1  0  0  0
 12  3  1  0  0  0
 35 26  1  0  0  0
 11  6  1  0  0  0
 35 30  1  0  0  0
 21 24  1  0  0  0
M  END
> <minimizedAffinity>
-10.29003

$$$$
OCNT-2315045


 24 26  0  0  0  0  0  0  0  0999 V2000
   -2.2988   28.9777    6.9078 C   0  0  0  0  0  0  0  0  0  0  0  0
   -3.1251   30.0320    7.5508 N   0  0  0  0  0  0  0  0  0  0  0  0
   -3.7814   29.7249    8.8250 C   0  0  0  0  0  0  0  0  0  0  0  0
   -4.8128   30.7627    9.2369 C   0  0  0  0  0  0  0  0  0  0  0  0
   -4.1674   32.1344    9.2252 C   0  0  0  0  0  0  0  0  0  0  0  0
   -3.6655   32.4418    7.8285 C   0  0  0  0  0  0  0  0  0  0  0  0
   -2.8035   31.3490    7.2261 C   0  0  0  0  0  0  0  0  0  0  0  0
   -1.9309   31.6368    6.4063 O   0  0  0  0  0  0  0  0  0  0  0  0
   -3.1614   27.9957    6.1762 C   0  0  0  0  0  0  0  0  0  0  0  0
   -4.4247   28.0769    5.8133 N   0  0  0  0  0  0  0  0  0  0  0  0
   -4.6375   26.8512    5.2320 C   0  0  0  0  0  0  0  0  0  0  0  0
   -3.5628   26.0502    5.1969 N   0  0  0  0  0  0  0  0  0  0  0  0
   -2.5773   26.8097    5.8301 O   0  0  0  0  0  0  0  0  0  0  0  0
   -5.9586   26.4405    4.6815 C   0  0  0  0  0  0  0  0  0  0  0  0
   -5.8384   25.6292    3.4331 C   0  0  0  0  0  0  0  0  0  0  0  0
   -5.6071   26.0245    2.1304 C   0  0  0  0  0  0  0  0  0  0  0  0
   -5.5653   24.9477    1.2865 N   0  0  0  0  0  0  0  0  0  0  0  0
   -5.7803   23.9019    2.0501 C   0  0  0  0  0  0  0  0  0  0  0  0
   -5.9515   24.2605    3.3578 N   0  0  0  0  0  0  0  0  0  0  0  0
   -6.2171   23.3377    4.4345 C   0  0  0  0  0  0  0  0  0  0  0  0
   -1.3667   28.2879    7.9291 C   0  0  0  0  0  0  0  0  0  0  0  0
    0.5723   29.2458    6.5659 C   0  0  0  0  0  0  0  0  0  0  0  0
    0.0887   28.8053    7.9482 C   0  0  0  0  0  0  0  0  0  0  0  0
    0.2048   29.9750    8.9302 C   0  0  0  0  0  0  0  0  0  0  0  0
 22 23  1  0  0  0
 23 24  1  0  0  0
 23 21  1  0  0  0
 21  1  1  0  0  0
  1  9  1  0  0  0
  9 10  2  0  0  0
 10 11  1  0  0  0
 11 14  1  0  0  0
 14 15  1  0  0  0
 15 16  2  0  0  0
 16 17  1  0  0  0
 17 18  2  0  0  0
 18 19  1  0  0  0
 19 20  1  0  0  0
 11 12  2  0  0  0
 12 13  1  0  0  0
  1  2  1  0  0  0
  2  3  1  0  0  0
  3  4  1  0  0  0
  4  5  1  0  0  0
  5  6  1  0  0  0
  6  7  1  0  0  0
  7  8  2  0  0  0
 13  9  1  0  0  0
  7  2  1  0  0  0
 19 15  1  0  0  0
M  END
> <minimizedAffinity>
-8.04987

$$$$
OCNT-2315056


 28 31  0  0  0  0  0  0  0  0999 V2000
   -5.6412   28.6712    6.2106 C   0  0  0  0  0  0  0  0  0  0  0  0
   -6.6556   29.2929    6.5464 O   0  0  0  0  0  0  0  0  0  0  0  0
   -4.4165   28.9726    6.8355 N   0  0  0  0  0  0  0  0  0  0  0  0
   -3.1288   28.4627    6.3624 C   0  0  0  0  0  0  0  0  0  0  0  0
   -1.9120   28.8985    7.1482 C   0  0  0  0  0  0  0  0  0  0  0  0
   -0.6405   28.4916    6.7134 C   0  0  0  0  0  0  0  0  0  0  0  0
    0.5044   28.8522    7.4239 C   0  0  0  0  0  0  0  0  0  0  0  0
    0.3921   29.6188    8.5803 C   0  0  0  0  0  0  0  0  0  0  0  0
   -0.8641   30.0298    9.0237 C   0  0  0  0  0  0  0  0  0  0  0  0
   -2.0169   29.6834    8.3056 C   0  0  0  0  0  0  0  0  0  0  0  0
   -3.3734   30.1096    8.7928 C   0  0  0  0  0  0  0  0  0  0  0  0
   -4.3931   30.1932    7.6536 C   0  0  0  0  0  0  0  0  0  0  0  0
   -6.0060   23.9859    0.3819 C   0  0  0  0  0  0  0  0  0  0  0  0
   -6.0083   24.5482    1.7798 C   0  0  0  0  0  0  0  0  0  0  0  0
   -5.8050   25.9347    1.9515 C   0  0  0  0  0  0  0  0  0  0  0  0
   -5.8021   26.4772    3.2473 C   0  0  0  0  0  0  0  0  0  0  0  0
   -6.0010   25.6257    4.3204 C   0  0  0  0  0  0  0  0  0  0  0  0
   -6.2070   24.2544    4.2023 C   0  0  0  0  0  0  0  0  0  0  0  0
   -6.2111   23.7133    2.9025 C   0  0  0  0  0  0  0  0  0  0  0  0
   -6.4274   22.2310    2.7408 C   0  0  0  0  0  0  0  0  0  0  0  0
   -5.9655   26.3202    5.4886 O   0  0  0  0  0  0  0  0  0  0  0  0
   -5.7415   27.6360    5.1878 C   0  0  0  0  0  0  0  0  0  0  0  0
   -5.6361   27.7668    3.8106 C   0  0  0  0  0  0  0  0  0  0  0  0
   -4.1668   31.4451    6.7738 C   0  0  0  0  0  0  0  0  0  0  0  0
   -4.3895   31.2748    5.4324 N   0  0  0  0  0  0  0  0  0  0  0  0
   -3.8267   32.5470    7.1963 O   0  0  0  0  0  0  0  0  0  0  0  0
   -4.2689   30.3632    5.0117 H   0  0  0  0  0  0  0  0  0  0  0  0
   -4.1276   32.0696    4.8612 H   0  0  0  0  0  0  0  0  0  0  0  0
 13 14  1  0  0  0
 14 15  1  0  0  0
 15 16  2  0  0  0
 16 17  1  0  0  0
 17 18  2  0  0  0
 18 19  1  0  0  0
 19 20  1  0  0  0
 17 21  1  0  0  0
 21 22  1  0  0  0
 22  1  1  0  0  0
  1  2  2  0  0  0
  1  3  1  0  0  0
  3  4  1  0  0  0
  4  5  1  0  0  0
  5  6  2  0  0  0
  6  7  1  0  0  0
  7  8  2  0  0  0
  8  9  1  0  0  0
  9 10  2  0  0  0
 10 11  1  0  0  0
 11 12  1  0  0  0
 12 24  1  0  0  0
 24 25  1  0  0  0
 24 26  2  0  0  0
 22 23  2  0  0  0
 19 14  2  0  0  0
 12  3  1  0  0  0
 23 16  1  0  0  0
 10  5  1  0  0  0
 25 27  1  0  0  0
 25 28  1  0  0  0
M  END
> <minimizedAffinity>
-11.33279

$$$$
OCNT-2315064


 26 29  0  0  0  0  0  0  0  0999 V2000
   -4.3596   25.0764    3.9036 C   0  0  0  0  0  0  0  0  0  0  0  0
   -3.3815   26.2413    4.1036 C   0  0  0  0  0  0  0  0  0  0  0  0
   -3.8072   27.1358    5.2585 C   0  0  0  0  0  0  0  0  0  0  0  0
   -5.1526   27.6867    5.0524 N   0  0  0  0  0  0  0  0  0  0  0  0
   -5.5456   28.9674    5.4432 C   0  0  0  0  0  0  0  0  0  0  0  0
   -6.5427   29.5317    4.9988 O   0  0  0  0  0  0  0  0  0  0  0  0
   -6.0268   26.9682    4.1262 C   0  0  0  0  0  0  0  0  0  0  0  0
   -5.8119   25.4631    4.2086 C   0  0  0  0  0  0  0  0  0  0  0  0
   -4.7380   29.7074    6.4301 C   0  0  0  0  0  0  0  0  0  0  0  0
   -4.9953   29.4951    7.7860 C   0  0  0  0  0  0  0  0  0  0  0  0
   -4.3423   30.0924    8.8205 N   0  0  0  0  0  0  0  0  0  0  0  0
   -3.3654   30.9180    8.3908 C   0  0  0  0  0  0  0  0  0  0  0  0
   -2.9955   31.1911    7.0801 C   0  0  0  0  0  0  0  0  0  0  0  0
   -3.6942   30.5587    6.0464 C   0  0  0  0  0  0  0  0  0  0  0  0
   -1.9555   32.0816    7.0753 N   0  0  0  0  0  0  0  0  0  0  0  0
   -1.6625   32.3807    8.3387 N   0  0  0  0  0  0  0  0  0  0  0  0
   -2.5006   31.6752    9.1280 N   0  0  0  0  0  0  0  0  0  0  0  0
   -2.4115   31.7764   10.5580 C   0  0  0  0  0  0  0  0  0  0  0  0
   -4.2649   24.6796    2.5229 O   0  0  0  0  0  0  0  0  0  0  0  0
   -6.1685   24.6587    0.3952 C   0  0  0  0  0  0  0  0  0  0  0  0
   -5.8663   23.4675    1.2456 C   0  0  0  0  0  0  0  0  0  0  0  0
   -6.5032   22.2526    1.0254 C   0  0  0  0  0  0  0  0  0  0  0  0
   -6.2757   21.1311    1.7459 N   0  0  0  0  0  0  0  0  0  0  0  0
   -5.3727   21.2218    2.7467 C   0  0  0  0  0  0  0  0  0  0  0  0
   -4.6685   22.3735    3.0425 C   0  0  0  0  0  0  0  0  0  0  0  0
   -4.9066   23.4990    2.2586 C   0  0  0  0  0  0  0  0  0  0  0  0
 20 21  1  0  0  0
 21 22  2  0  0  0
 22 23  1  0  0  0
 23 24  2  0  0  0
 24 25  1  0  0  0
 25 26  2  0  0  0
 26 19  1  0  0  0
 19  1  1  0  0  0
  1  2  1  0  0  0
  2  3  1  0  0  0
  3  4  1  0  0  0
  4  5  1  0  0  0
  5  6  2  0  0  0
  5  9  1  0  0  0
  9 10  2  0  0  0
 10 11  1  0  0  0
 11 12  2  0  0  0
 12 13  1  0  0  0
 13 14  2  0  0  0
 13 15  1  0  0  0
 15 16  2  0  0  0
 16 17  1  0  0  0
 17 18  1  0  0  0
  4  7  1  0  0  0
  7  8  1  0  0  0
 26 21  1  0  0  0
  8  1  1  0  0  0
 14  9  1  0  0  0
 17 12  1  0  0  0
M  END
> <minimizedAffinity>
-8.80152

$$$$
OCNT-2315065


 23 25  0  0  0  0  0  0  0  0999 V2000
   -4.0436   26.3950    4.9238 O   0  0  0  0  0  0  0  0  0  0  0  0
   -4.9036   27.1587    4.4860 C   0  0  0  0  0  0  0  0  0  0  0  0
   -5.3226   28.2667    5.1957 N   0  0  0  0  0  0  0  0  0  0  0  0
   -6.5140   29.0558    4.9189 C   0  0  0  0  0  0  0  0  0  0  0  0
   -6.8991   29.6396    6.2682 C   0  0  0  0  0  0  0  0  0  0  0  0
   -5.5501   29.8504    6.9385 C   0  0  0  0  0  0  0  0  0  0  0  0
   -4.7365   28.6234    6.4951 C   0  0  0  0  0  0  0  0  0  0  0  0
   -5.5926   26.9170    3.1514 C   0  0  0  0  0  0  0  0  0  0  0  0
   -4.8733   25.8804    2.2860 C   0  0  0  0  0  0  0  0  0  0  0  0
   -5.8272   25.0217    1.4815 C   0  0  0  0  0  0  0  0  0  0  0  0
   -6.1343   25.4039    0.1640 C   0  0  0  0  0  0  0  0  0  0  0  0
   -7.0187   24.6550   -0.6145 C   0  0  0  0  0  0  0  0  0  0  0  0
   -7.6128   23.5114   -0.0894 C   0  0  0  0  0  0  0  0  0  0  0  0
   -7.3236   23.1183    1.2165 C   0  0  0  0  0  0  0  0  0  0  0  0
   -6.4389   23.8676    1.9992 C   0  0  0  0  0  0  0  0  0  0  0  0
   -6.1403   23.3186    3.6110 Cl  0  0  0  0  0  0  0  0  0  0  0  0
   -3.2183   28.9307    6.4338 C   0  0  0  0  0  0  0  0  0  0  0  0
   -2.5930   29.1041    7.7600 N   0  0  0  0  0  0  0  0  0  0  0  0
   -2.0533   30.4762    7.8946 C   0  0  0  0  0  0  0  0  0  0  0  0
   -0.9776   30.5597    8.9870 C   0  0  0  0  0  0  0  0  0  0  0  0
    0.1821   29.7715    8.6848 O   0  0  0  0  0  0  0  0  0  0  0  0
   -0.1066   28.6516    7.8368 C   0  0  0  0  0  0  0  0  0  0  0  0
   -1.5318   28.1050    8.0241 C   0  0  0  0  0  0  0  0  0  0  0  0
  1  2  2  0  0  0
  2  8  1  0  0  0
  8  9  1  0  0  0
  9 10  1  0  0  0
 10 11  2  0  0  0
 11 12  1  0  0  0
 12 13  2  0  0  0
 13 14  1  0  0  0
 14 15  2  0  0  0
 15 16  1  0  0  0
  2  3  1  0  0  0
  3  4  1  0  0  0
  4  5  1  0  0  0
  5  6  1  0  0  0
  6  7  1  0  0  0
  7 17  1  0  0  0
 17 18  1  0  0  0
 18 19  1  0  0  0
 19 20  1  0  0  0
 20 21  1  0  0  0
 21 22  1  0  0  0
 22 23  1  0  0  0
 15 10  1  0  0  0
  7  3  1  0  0  0
 23 18  1  0  0  0
M  END
> <minimizedAffinity>
-8.67294

$$$$
OCNT-2315079


 28 30  0  0  0  0  0  0  0  0999 V2000
   -3.4252   26.8101    3.7562 N   0  0  0  0  0  0  0  0  0  0  0  0
   -3.0563   26.5086    5.0409 C   0  0  0  0  0  0  0  0  0  0  0  0
   -3.5944   25.6654    5.7431 O   0  0  0  0  0  0  0  0  0  0  0  0
   -1.9907   27.2752    5.4343 N   0  0  0  0  0  0  0  0  0  0  0  0
   -3.2237   27.7565    3.4707 H   0  0  0  0  0  0  0  0  0  0  0  0
   -1.3704   27.5266    4.6787 H   0  0  0  0  0  0  0  0  0  0  0  0
   -4.5732   26.1663    3.1250 C   0  0  0  0  0  0  0  0  0  0  0  0
   -5.7048   27.1807    2.9402 C   0  0  0  0  0  0  0  0  0  0  0  0
   -4.2074   25.5203    1.7580 C   0  0  0  0  0  0  0  0  0  0  0  0
   -7.7959   22.8259   -0.3950 C   0  0  0  0  0  0  0  0  0  0  0  0
   -6.3615   22.8475    0.1364 C   0  0  0  0  0  0  0  0  0  0  0  0
   -6.1207   21.6991    1.1342 C   0  0  0  0  0  0  0  0  0  0  0  0
   -5.8645   22.2168    2.5439 C   0  0  0  0  0  0  0  0  0  0  0  0
   -4.7318   23.2493    2.5637 C   0  0  0  0  0  0  0  0  0  0  0  0
   -4.7632   24.1935    1.4438 N   0  0  0  0  0  0  0  0  0  0  0  0
   -6.0416   24.2302    0.7374 C   0  0  0  0  0  0  0  0  0  0  0  0
   -1.3635   27.0051    6.7062 C   0  0  0  0  0  0  0  0  0  0  0  0
   -1.1670   28.2825    7.4736 C   0  0  0  0  0  0  0  0  0  0  0  0
    0.0862   28.6199    7.9905 C   0  0  0  0  0  0  0  0  0  0  0  0
    0.2099   29.7866    8.7267 C   0  0  0  0  0  0  0  0  0  0  0  0
   -0.8166   30.6239    8.9877 N   0  0  0  0  0  0  0  0  0  0  0  0
   -2.0375   30.2843    8.4896 C   0  0  0  0  0  0  0  0  0  0  0  0
   -2.2497   29.1307    7.7353 C   0  0  0  0  0  0  0  0  0  0  0  0
   -3.1435   31.1449    8.7633 N   0  0  0  0  0  0  0  0  0  0  0  0
   -3.0877   32.5114    8.9456 C   0  0  0  0  0  0  0  0  0  0  0  0
   -4.3713   32.9425    9.1773 C   0  0  0  0  0  0  0  0  0  0  0  0
   -5.1478   31.7754    9.1239 C   0  0  0  0  0  0  0  0  0  0  0  0
   -4.4212   30.6816    8.8841 N   0  0  0  0  0  0  0  0  0  0  0  0
 10 11  1  0  0  0
 11 12  1  0  0  0
 12 13  1  0  0  0
 13 14  1  0  0  0
 14 15  1  0  0  0
 15  9  1  0  0  0
  9  7  1  0  0  0
  7  8  1  0  0  0
  7  1  1  0  0  0
  1  2  1  0  0  0
  2  3  2  0  0  0
  2  4  1  0  0  0
  4 17  1  0  0  0
 17 18  1  0  0  0
 18 19  2  0  0  0
 19 20  1  0  0  0
 20 21  2  0  0  0
 21 22  1  0  0  0
 22 24  1  0  0  0
 24 25  1  0  0  0
 25 26  2  0  0  0
 26 27  1  0  0  0
 27 28  2  0  0  0
 22 23  2  0  0  0
 15 16  1  0  0  0
 16 11  1  0  0  0
 23 18  1  0  0  0
 28 24  1  0  0  0
  1  5  1  0  0  0
  4  6  1  0  0  0
M  END
> <minimizedAffinity>
-9.43762

$$$$
OCNT-2315085


 23 25  0  0  0  0  0  0  0  0999 V2000
   -4.5752   32.1383    7.3517 C   0  0  0  0  0  0  0  0  0  0  0  0
   -4.1798   30.7308    7.3502 N   0  0  0  0  0  0  0  0  0  0  0  0
   -4.7731   30.0944    6.1510 C   0  0  0  0  0  0  0  0  0  0  0  0
   -4.5324   28.5846    6.0973 C   0  0  0  0  0  0  0  0  0  0  0  0
   -3.1113   28.2634    6.1767 N   0  0  0  0  0  0  0  0  0  0  0  0
   -2.5936   27.0056    5.7896 C   0  0  0  0  0  0  0  0  0  0  0  0
   -1.5804   26.5678    6.3457 O   0  0  0  0  0  0  0  0  0  0  0  0
   -2.4094   28.9505    7.2640 C   0  0  0  0  0  0  0  0  0  0  0  0
   -2.6974   30.4919    7.3795 C   0  0  0  0  0  0  0  0  0  0  0  0
   -3.2391   26.2480    4.7261 C   0  0  0  0  0  0  0  0  0  0  0  0
   -3.0504   26.3252    3.4245 N   0  0  0  0  0  0  0  0  0  0  0  0
   -3.8699   25.3758    2.8498 N   0  0  0  0  0  0  0  0  0  0  0  0
   -4.4928   24.7579    3.8357 C   0  0  0  0  0  0  0  0  0  0  0  0
   -4.1350   25.2622    5.0624 O   0  0  0  0  0  0  0  0  0  0  0  0
   -5.5214   23.5886    3.6466 C   0  0  0  0  0  0  0  0  0  0  0  0
   -5.2254   22.4688    2.8946 C   0  0  0  0  0  0  0  0  0  0  0  0
   -6.5645   21.3959    2.8970 S   0  0  0  0  0  0  0  0  0  0  0  0
   -7.4217   22.5009    3.8908 C   0  0  0  0  0  0  0  0  0  0  0  0
   -6.7839   23.6025    4.2179 N   0  0  0  0  0  0  0  0  0  0  0  0
   -1.8898   31.1181    8.6090 C   0  0  0  0  0  0  0  0  0  0  0  0
   -2.7444   31.1551    9.8910 C   0  0  0  0  0  0  0  0  0  0  0  0
   -0.6179   30.2867    8.9257 C   0  0  0  0  0  0  0  0  0  0  0  0
   -1.3696   32.5431    8.3031 C   0  0  0  0  0  0  0  0  0  0  0  0
  1  2  1  0  0  0
  2  3  1  0  0  0
  3  4  1  0  0  0
  4  5  1  0  0  0
  5  6  1  0  0  0
  6  7  2  0  0  0
  6 10  1  0  0  0
 10 11  2  0  0  0
 11 12  1  0  0  0
 12 13  2  0  0  0
 13 15  1  0  0  0
 15 16  2  0  0  0
 16 17  1  0  0  0
 17 18  1  0  0  0
 18 19  2  0  0  0
 13 14  1  0  0  0
  5  8  1  0  0  0
  8  9  1  0  0  0
  9 20  1  0  0  0
 20 21  1  0  0  0
 20 22  1  0  0  0
 20 23  1  0  0  0
  9  2  1  0  0  0
 14 10  1  0  0  0
 19 15  1  0  0  0
M  END
> <minimizedAffinity>
-7.83844

$$$$
OCNT-2315097


 23 26  0  0  0  0  0  0  0  0999 V2000
   -2.3131   27.2714    5.8400 N   0  0  0  0  0  0  0  0  0  0  0  0
   -3.7276   27.1136    5.4772 C   0  0  0  0  0  0  0  0  0  0  0  0
   -4.1554   25.6791    5.1739 C   0  0  0  0  0  0  0  0  0  0  0  0
   -3.2723   25.0110    4.1052 C   0  0  0  0  0  0  0  0  0  0  0  0
   -1.9852   25.8014    3.8390 C   0  0  0  0  0  0  0  0  0  0  0  0
   -1.4188   26.3137    5.1620 C   0  0  0  0  0  0  0  0  0  0  0  0
   -4.0239   24.6541    2.8457 C   0  0  0  0  0  0  0  0  0  0  0  0
   -4.1981   25.5080    1.7704 C   0  0  0  0  0  0  0  0  0  0  0  0
   -4.9116   24.8569    0.8043 N   0  0  0  0  0  0  0  0  0  0  0  0
   -5.2148   23.5822    1.2159 C   0  0  0  0  0  0  0  0  0  0  0  0
   -5.9219   22.5717    0.5516 C   0  0  0  0  0  0  0  0  0  0  0  0
   -6.0895   21.3530    1.2122 C   0  0  0  0  0  0  0  0  0  0  0  0
   -5.5706   21.1568    2.4876 C   0  0  0  0  0  0  0  0  0  0  0  0
   -4.8660   22.1788    3.1360 C   0  0  0  0  0  0  0  0  0  0  0  0
   -4.6764   23.4217    2.4949 C   0  0  0  0  0  0  0  0  0  0  0  0
   -5.1798   25.2494   -0.0872 H   0  0  0  0  0  0  0  0  0  0  0  0
   -2.1209   27.2336    7.3036 C   0  0  0  0  0  0  0  0  0  0  0  0
   -3.1012   29.8088    8.6792 C   0  0  0  0  0  0  0  0  0  0  0  0
   -1.7192   29.4757    8.4357 N   0  0  0  0  0  0  0  0  0  0  0  0
   -0.6453   30.2535    8.7697 C   0  0  0  0  0  0  0  0  0  0  0  0
    0.4524   29.5537    8.3327 C   0  0  0  0  0  0  0  0  0  0  0  0
    0.0751   28.3753    7.7465 N   0  0  0  0  0  0  0  0  0  0  0  0
   -1.2445   28.3417    7.8163 C   0  0  0  0  0  0  0  0  0  0  0  0
 18 19  1  0  0  0
 19 20  1  0  0  0
 20 21  2  0  0  0
 21 22  1  0  0  0
 22 23  2  0  0  0
 23 17  1  0  0  0
 17  1  1  0  0  0
  1  2  1  0  0  0
  2  3  1  0  0  0
  3  4  1  0  0  0
  4  7  1  0  0  0
  7  8  2  0  0  0
  8  9  1  0  0  0
  9 10  1  0  0  0
 10 11  2  0  0  0
 11 12  1  0  0  0
 12 13  2  0  0  0
 13 14  1  0  0  0
 14 15  2  0  0  0
  4  5  1  0  0  0
  5  6  1  0  0  0
 23 19  1  0  0  0
  6  1  1  0  0  0
 15  7  1  0  0  0
 15 10  1  0  0  0
  9 16  1  0  0  0
M  END
> <minimizedAffinity>
-8.95639

$$$$
OCNT-2315100


 28 31  0  0  0  0  0  0  0  0999 V2000
   -1.0468   28.8264    7.1589 C   0  0  0  0  0  0  0  0  0  0  0  0
    0.2717   28.4955    7.4556 C   0  0  0  0  0  0  0  0  0  0  0  0
    0.9512   29.2204    8.4299 C   0  0  0  0  0  0  0  0  0  0  0  0
    0.2847   30.2503    9.0705 C   0  0  0  0  0  0  0  0  0  0  0  0
   -0.9951   30.5976    8.8142 N   0  0  0  0  0  0  0  0  0  0  0  0
   -1.6540   29.8903    7.8691 C   0  0  0  0  0  0  0  0  0  0  0  0
   -3.0226   30.1776    7.5902 N   0  0  0  0  0  0  0  0  0  0  0  0
   -3.2585   31.6307    7.5134 C   0  0  0  0  0  0  0  0  0  0  0  0
   -4.7613   31.8955    7.5223 C   0  0  0  0  0  0  0  0  0  0  0  0
   -5.3809   31.4687    8.8680 C   0  0  0  0  0  0  0  0  0  0  0  0
   -4.5663   30.3493    9.5408 C   0  0  0  0  0  0  0  0  0  0  0  0
   -3.8978   29.4314    8.5189 C   0  0  0  0  0  0  0  0  0  0  0  0
   -6.8497   31.0685    8.6923 C   0  0  0  0  0  0  0  0  0  0  0  0
   -7.2524   31.2287    7.3388 O   0  0  0  0  0  0  0  0  0  0  0  0
   -7.1511   32.1692    7.1109 H   0  0  0  0  0  0  0  0  0  0  0  0
   -2.3605   26.9208    6.1804 C   0  0  0  0  0  0  0  0  0  0  0  0
   -2.2574   26.1153    7.0987 O   0  0  0  0  0  0  0  0  0  0  0  0
   -1.8285   28.1864    6.1726 N   0  0  0  0  0  0  0  0  0  0  0  0
   -1.9709   28.7691    5.3480 H   0  0  0  0  0  0  0  0  0  0  0  0
   -5.4255   27.6135    5.4226 C   0  0  0  0  0  0  0  0  0  0  0  0
   -4.4039   26.8644    4.6343 C   0  0  0  0  0  0  0  0  0  0  0  0
   -3.1155   26.5668    4.9317 C   0  0  0  0  0  0  0  0  0  0  0  0
   -2.2973   25.6345    3.6447 S   0  0  0  0  0  0  0  0  0  0  0  0
   -3.7614   25.6782    2.7290 C   0  0  0  0  0  0  0  0  0  0  0  0
   -4.1274   25.2131    1.5675 N   0  0  0  0  0  0  0  0  0  0  0  0
   -5.4438   25.6165    1.4690 C   0  0  0  0  0  0  0  0  0  0  0  0
   -5.8460   26.3264    2.5882 C   0  0  0  0  0  0  0  0  0  0  0  0
   -4.7417   26.3521    3.3905 N   0  0  0  0  0  0  0  0  0  0  0  0
 20 21  1  0  0  0
 21 22  2  0  0  0
 22 16  1  0  0  0
 16 17  2  0  0  0
 16 18  1  0  0  0
 18  1  1  0  0  0
  1  2  1  0  0  0
  2  3  2  0  0  0
  3  4  1  0  0  0
  4  5  2  0  0  0
  5  6  1  0  0  0
  6  7  1  0  0  0
  7  8  1  0  0  0
  8  9  1  0  0  0
  9 10  1  0  0  0
 10 13  1  0  0  0
 13 14  1  0  0  0
 10 11  1  0  0  0
 11 12  1  0  0  0
 22 23  1  0  0  0
 23 24  1  0  0  0
 24 25  2  0  0  0
 25 26  1  0  0  0
 26 27  2  0  0  0
 27 28  1  0  0  0
 28 21  1  0  0  0
  6  1  2  0  0  0
 12  7  1  0  0  0
 28 24  1  0  0  0
 18 19  1  0  0  0
 14 15  1  0  0  0
M  END
> <minimizedAffinity>
-8.50868

$$$$
OCNT-2315105


 25 28  0  0  0  0  0  0  0  0999 V2000
   -1.3639   26.3545    5.8718 O   0  0  0  0  0  0  0  0  0  0  0  0
   -2.2563   27.1965    5.8316 C   0  0  0  0  0  0  0  0  0  0  0  0
   -3.3244   27.0981    4.9834 N   0  0  0  0  0  0  0  0  0  0  0  0
   -2.2392   28.3204    6.6114 N   0  0  0  0  0  0  0  0  0  0  0  0
   -1.1308   28.5457    7.5363 C   0  0  0  0  0  0  0  0  0  0  0  0
   -1.4169   29.8968    8.1089 C   0  0  0  0  0  0  0  0  0  0  0  0
   -0.7034   30.6015    9.0632 C   0  0  0  0  0  0  0  0  0  0  0  0
   -1.1700   31.8639    9.4369 C   0  0  0  0  0  0  0  0  0  0  0  0
   -2.3312   32.4000    8.8563 C   0  0  0  0  0  0  0  0  0  0  0  0
   -3.0439   31.6818    7.8932 C   0  0  0  0  0  0  0  0  0  0  0  0
   -2.5743   30.4310    7.5305 C   0  0  0  0  0  0  0  0  0  0  0  0
   -3.1411   29.4706    6.5364 C   0  0  0  0  0  0  0  0  0  0  0  0
   -4.1544   27.6131    5.2298 H   0  0  0  0  0  0  0  0  0  0  0  0
   -3.4873   25.9843    4.0770 C   0  0  0  0  0  0  0  0  0  0  0  0
   -4.9502   25.7306    3.8330 C   0  0  0  0  0  0  0  0  0  0  0  0
   -5.8049   25.4548    5.0396 C   0  0  0  0  0  0  0  0  0  0  0  0
   -6.4584   24.1664    4.7379 N   0  0  0  0  0  0  0  0  0  0  0  0
   -6.5731   24.0296    3.2751 C   0  0  0  0  0  0  0  0  0  0  0  0
   -5.4513   24.8468    2.7192 C   0  0  0  0  0  0  0  0  0  0  0  0
   -5.6109   26.3542    2.6175 C   0  0  0  0  0  0  0  0  0  0  0  0
   -5.8284   23.4353    5.0737 H   0  0  0  0  0  0  0  0  0  0  0  0
   -4.5701   24.1314    1.7565 C   0  0  0  0  0  0  0  0  0  0  0  0
   -3.8839   24.9861    0.9600 F   0  0  0  0  0  0  0  0  0  0  0  0
   -5.2976   23.3221    0.9532 F   0  0  0  0  0  0  0  0  0  0  0  0
   -3.6557   23.3634    2.3966 F   0  0  0  0  0  0  0  0  0  0  0  0
  1  2  2  0  0  0
  2  3  1  0  0  0
  3 14  1  0  0  0
 15 14  1  0  0  0
 15 16  1  0  0  0
 16 17  1  0  0  0
 17 18  1  0  0  0
 18 19  1  0  0  0
 19 22  1  0  0  0
 22 23  1  0  0  0
 22 24  1  0  0  0
 22 25  1  0  0  0
 19 20  1  0  0  0
  2  4  1  0  0  0
  4  5  1  0  0  0
  5  6  1  0  0  0
  6  7  2  0  0  0
  7  8  1  0  0  0
  8  9  2  0  0  0
  9 10  1  0  0  0
 10 11  2  0  0  0
 11 12  1  0  0  0
 19 15  1  0  0  0
 12  4  1  0  0  0
 20 15  1  0  0  0
 11  6  1  0  0  0
  3 13  1  0  0  0
 17 21  1  0  0  0
M  END
> <minimizedAffinity>
-9.23715

$$$$
OCNT-2315122


 24 26  0  0  0  0  0  0  0  0999 V2000
   -3.7027   27.9901    6.6653 N   0  0  0  0  0  0  0  0  0  0  0  0
   -3.1294   26.7086    6.2036 C   0  0  0  0  0  0  0  0  0  0  0  0
   -2.6279   26.7200    4.7603 C   0  0  0  0  0  0  0  0  0  0  0  0
   -3.7285   26.4648    3.7514 C   0  0  0  0  0  0  0  0  0  0  0  0
   -3.4312   25.5238    2.7380 C   0  0  0  0  0  0  0  0  0  0  0  0
   -4.3744   25.1488    1.7869 C   0  0  0  0  0  0  0  0  0  0  0  0
   -5.6393   25.7061    1.8316 C   0  0  0  0  0  0  0  0  0  0  0  0
   -5.9425   26.6549    2.8093 C   0  0  0  0  0  0  0  0  0  0  0  0
   -4.9968   27.0877    3.7735 C   0  0  0  0  0  0  0  0  0  0  0  0
   -5.4283   28.1912    4.7695 C   0  0  0  0  0  0  0  0  0  0  0  0
   -6.5174   27.6342    5.7122 C   0  0  0  0  0  0  0  0  0  0  0  0
   -6.0535   29.3757    3.9711 C   0  0  0  0  0  0  0  0  0  0  0  0
   -4.2877   28.8511    5.6067 C   0  0  0  0  0  0  0  0  0  0  0  0
   -3.0578   29.6345    8.3958 C   0  0  0  0  0  0  0  0  0  0  0  0
   -2.0523   30.4355    8.9592 C   0  0  0  0  0  0  0  0  0  0  0  0
   -0.7483   30.3525    8.4888 C   0  0  0  0  0  0  0  0  0  0  0  0
   -0.4892   29.4656    7.4645 C   0  0  0  0  0  0  0  0  0  0  0  0
   -1.4306   28.6856    6.8893 N   0  0  0  0  0  0  0  0  0  0  0  0
   -2.7106   28.7696    7.3411 C   0  0  0  0  0  0  0  0  0  0  0  0
   -6.2191   28.6327   10.2416 C   0  0  0  0  0  0  0  0  0  0  0  0
   -4.8870   28.6697    9.7018 N   0  0  0  0  0  0  0  0  0  0  0  0
   -4.4203   29.7506    8.9917 C   0  0  0  0  0  0  0  0  0  0  0  0
   -5.0634   30.7878    8.8587 O   0  0  0  0  0  0  0  0  0  0  0  0
   -4.3608   27.8015    9.6021 H   0  0  0  0  0  0  0  0  0  0  0  0
 20 21  1  0  0  0
 21 22  1  0  0  0
 22 23  2  0  0  0
 22 14  1  0  0  0
 14 15  1  0  0  0
 15 16  2  0  0  0
 16 17  1  0  0  0
 17 18  2  0  0  0
 18 19  1  0  0  0
 19  1  1  0  0  0
  1  2  1  0  0  0
  2  3  1  0  0  0
  3  4  1  0  0  0
  4  5  2  0  0  0
  5  6  1  0  0  0
  6  7  2  0  0  0
  7  8  1  0  0  0
  8  9  2  0  0  0
  9 10  1  0  0  0
 10 11  1  0  0  0
 10 12  1  0  0  0
 10 13  1  0  0  0
 19 14  2  0  0  0
 13  1  1  0  0  0
  9  4  1  0  0  0
 21 24  1  0  0  0
M  END
> <minimizedAffinity>
-9.28785

$$$$
OCNT-2315124


 23 24  0  0  0  0  0  0  0  0999 V2000
    0.4466   29.0800    7.1959 S   0  0  0  0  0  0  0  0  0  0  0  0
    0.8906   29.4985    5.8893 O   0  0  0  0  0  0  0  0  0  0  0  0
    1.2542   29.2240    8.3855 O   0  0  0  0  0  0  0  0  0  0  0  0
   -2.7369   31.2533    8.1818 C   0  0  0  0  0  0  0  0  0  0  0  0
   -2.4894   31.6457    6.9162 N   0  0  0  0  0  0  0  0  0  0  0  0
   -1.4312   30.9074    6.5387 N   0  0  0  0  0  0  0  0  0  0  0  0
   -0.9565   30.0773    7.5099 C   0  0  0  0  0  0  0  0  0  0  0  0
   -1.7966   30.2680    8.5863 C   0  0  0  0  0  0  0  0  0  0  0  0
   -1.0533   31.0266    5.6019 H   0  0  0  0  0  0  0  0  0  0  0  0
   -3.8276   31.7936    9.0086 C   0  0  0  0  0  0  0  0  0  0  0  0
   -4.7962   31.1198    9.3491 O   0  0  0  0  0  0  0  0  0  0  0  0
   -4.5929   33.9989    8.7755 C   0  0  0  0  0  0  0  0  0  0  0  0
   -3.6471   33.1034    9.3551 O   0  0  0  0  0  0  0  0  0  0  0  0
   -0.1041   27.4983    7.0832 N   0  0  0  0  0  0  0  0  0  0  0  0
    0.5959   26.9158    6.6009 H   0  0  0  0  0  0  0  0  0  0  0  0
   -1.4667   27.3048    6.5317 C   0  0  0  0  0  0  0  0  0  0  0  0
   -1.4892   26.2182    5.4385 C   0  0  0  0  0  0  0  0  0  0  0  0
   -0.2132   26.2191    4.5947 C   0  0  0  0  0  0  0  0  0  0  0  0
   -2.7086   26.3734    4.5603 C   0  0  0  0  0  0  0  0  0  0  0  0
   -2.7604   26.0044    3.2935 N   0  0  0  0  0  0  0  0  0  0  0  0
   -4.0131   26.2843    2.7801 C   0  0  0  0  0  0  0  0  0  0  0  0
   -4.8981   26.8712    3.6570 C   0  0  0  0  0  0  0  0  0  0  0  0
   -4.1497   27.0787    5.1830 S   0  0  0  0  0  0  0  0  0  0  0  0
 12 13  1  0  0  0
 13 10  1  0  0  0
 10 11  2  0  0  0
 10  4  1  0  0  0
  4  5  2  0  0  0
  5  6  1  0  0  0
  6  7  1  0  0  0
  7  1  1  0  0  0
  1  2  2  0  0  0
  1  3  2  0  0  0
  1 14  1  0  0  0
 14 16  1  0  0  0
 16 17  1  0  0  0
 17 18  1  0  0  0
 17 19  1  0  0  0
 19 20  2  0  0  0
 20 21  1  0  0  0
 21 22  2  0  0  0
 22 23  1  0  0  0
  7  8  2  0  0  0
  8  4  1  0  0  0
 23 19  1  0  0  0
  6  9  1  0  0  0
 14 15  1  0  0  0
M  END
> <minimizedAffinity>
-7.32535

$$$$
OCNT-2315125


 27 31  0  0  0  0  0  0  0  0999 V2000
   -5.1374   27.5961    5.1580 C   0  0  0  0  0  0  0  0  0  0  0  0
   -4.6037   28.2177    6.1849 N   0  0  0  0  0  0  0  0  0  0  0  0
   -5.3635   29.3563    6.2630 C   0  0  0  0  0  0  0  0  0  0  0  0
   -6.3257   29.4497    5.3359 N   0  0  0  0  0  0  0  0  0  0  0  0
   -6.1791   28.2771    4.5970 O   0  0  0  0  0  0  0  0  0  0  0  0
   -5.1318   30.4422    7.3291 C   0  0  0  0  0  0  0  0  0  0  0  0
   -6.0977   31.1034    8.0609 C   0  0  0  0  0  0  0  0  0  0  0  0
   -5.5345   32.0132    8.9267 N   0  0  0  0  0  0  0  0  0  0  0  0
   -4.2428   31.8960    8.7134 C   0  0  0  0  0  0  0  0  0  0  0  0
   -3.1658   32.6084    9.3441 C   0  0  0  0  0  0  0  0  0  0  0  0
   -1.9160   32.3872    9.0299 N   0  0  0  0  0  0  0  0  0  0  0  0
   -1.6609   31.4328    8.0580 C   0  0  0  0  0  0  0  0  0  0  0  0
   -2.6136   30.7258    7.4237 C   0  0  0  0  0  0  0  0  0  0  0  0
   -3.9376   30.9591    7.7557 N   0  0  0  0  0  0  0  0  0  0  0  0
   -5.3518   24.5258    2.8511 C   0  0  0  0  0  0  0  0  0  0  0  0
   -5.7513   25.8888    3.4460 C   0  0  0  0  0  0  0  0  0  0  0  0
   -4.7668   26.2892    4.5493 C   0  0  0  0  0  0  0  0  0  0  0  0
   -3.3145   26.2929    4.0408 C   0  0  0  0  0  0  0  0  0  0  0  0
   -3.1668   25.6279    2.6734 C   0  0  0  0  0  0  0  0  0  0  0  0
   -3.9066   24.3771    2.6244 N   0  0  0  0  0  0  0  0  0  0  0  0
   -3.7441   23.8925    1.7409 H   0  0  0  0  0  0  0  0  0  0  0  0
   -7.6285   23.5398   -0.7027 C   0  0  0  0  0  0  0  0  0  0  0  0
   -7.6090   22.6709    0.3853 C   0  0  0  0  0  0  0  0  0  0  0  0
   -6.8743   22.9957    1.5277 C   0  0  0  0  0  0  0  0  0  0  0  0
   -6.1516   24.1974    1.5997 C   0  0  0  0  0  0  0  0  0  0  0  0
   -6.1757   25.0584    0.4902 C   0  0  0  0  0  0  0  0  0  0  0  0
   -6.9111   24.7324   -0.6513 C   0  0  0  0  0  0  0  0  0  0  0  0
 22 23  2  0  0  0
 23 24  1  0  0  0
 24 25  2  0  0  0
 25 15  1  0  0  0
 15 16  1  0  0  0
 16 17  1  0  0  0
 17  1  1  0  0  0
  1  2  2  0  0  0
  2  3  1  0  0  0
  3  6  1  0  0  0
  6  7  2  0  0  0
  7  8  1  0  0  0
  8  9  2  0  0  0
  9 10  1  0  0  0
 10 11  2  0  0  0
 11 12  1  0  0  0
 12 13  2  0  0  0
 13 14  1  0  0  0
  3  4  2  0  0  0
  4  5  1  0  0  0
 17 18  1  0  0  0
 18 19  1  0  0  0
 19 20  1  0  0  0
 25 26  1  0  0  0
 26 27  2  0  0  0
 27 22  1  0  0  0
 20 15  1  0  0  0
  5  1  1  0  0  0
 14  6  1  0  0  0
 14  9  1  0  0  0
 20 21  1  0  0  0
M  END
> <minimizedAffinity>
-9.97068

$$$$
OCNT-2315127


 25 26  0  0  0  0  0  0  0  0999 V2000
   -5.8349   30.2014    8.5163 C   0  0  0  0  0  0  0  0  0  0  0  0
   -6.7026   31.0355    8.2862 O   0  0  0  0  0  0  0  0  0  0  0  0
   -5.8314   28.9448    7.9486 N   0  0  0  0  0  0  0  0  0  0  0  0
   -5.1567   28.2637    8.2703 H   0  0  0  0  0  0  0  0  0  0  0  0
   -4.6454   30.4393    9.4277 C   0  0  0  0  0  0  0  0  0  0  0  0
   -3.5235   31.2573    8.7598 C   0  0  0  0  0  0  0  0  0  0  0  0
   -2.2701   30.3974    8.6418 C   0  0  0  0  0  0  0  0  0  0  0  0
   -1.0351   30.9096    9.0681 C   0  0  0  0  0  0  0  0  0  0  0  0
    0.1281   30.1448    8.9630 C   0  0  0  0  0  0  0  0  0  0  0  0
    0.0729   28.8595    8.4294 C   0  0  0  0  0  0  0  0  0  0  0  0
   -1.1452   28.3381    8.0000 C   0  0  0  0  0  0  0  0  0  0  0  0
   -2.3096   29.1015    8.1039 C   0  0  0  0  0  0  0  0  0  0  0  0
   -4.3998   33.5776    9.3982 C   0  0  0  0  0  0  0  0  0  0  0  0
   -3.2578   32.5757    9.5238 C   0  0  0  0  0  0  0  0  0  0  0  0
   -6.9217   28.4881    7.1181 C   0  0  0  0  0  0  0  0  0  0  0  0
   -6.5095   28.4231    5.6763 C   0  0  0  0  0  0  0  0  0  0  0  0
   -6.5188   29.5666    4.8819 C   0  0  0  0  0  0  0  0  0  0  0  0
   -6.1765   29.5803    3.5730 N   0  0  0  0  0  0  0  0  0  0  0  0
   -5.8140   28.3964    3.0215 C   0  0  0  0  0  0  0  0  0  0  0  0
   -5.7809   27.1966    3.7187 C   0  0  0  0  0  0  0  0  0  0  0  0
   -6.1391   27.2154    5.0708 C   0  0  0  0  0  0  0  0  0  0  0  0
   -5.3726   25.9736    2.9943 C   0  0  0  0  0  0  0  0  0  0  0  0
   -6.0762   24.9819    2.8940 O   0  0  0  0  0  0  0  0  0  0  0  0
   -4.1278   26.1222    2.4755 O   0  0  0  0  0  0  0  0  0  0  0  0
   -3.0801   25.9886    3.4382 C   0  0  0  0  0  0  0  0  0  0  0  0
 13 14  1  0  0  0
 14  6  1  0  0  0
  6  5  1  0  0  0
  5  1  1  0  0  0
  1  2  2  0  0  0
  1  3  1  0  0  0
  3 15  1  0  0  0
 15 16  1  0  0  0
 16 17  2  0  0  0
 17 18  1  0  0  0
 18 19  2  0  0  0
 19 20  1  0  0  0
 20 22  1  0  0  0
 22 23  2  0  0  0
 22 24  1  0  0  0
 24 25  1  0  0  0
 20 21  2  0  0  0
  6  7  1  0  0  0
  7  8  2  0  0  0
  8  9  1  0  0  0
  9 10  2  0  0  0
 10 11  1  0  0  0
 11 12  2  0  0  0
 21 16  1  0  0  0
 12  7  1  0  0  0
  3  4  1  0  0  0
M  END
> <minimizedAffinity>
-8.54999

$$$$
OCNT-2315145


 28 31  0  0  0  0  0  0  0  0999 V2000
   -6.1660   27.6825    5.4683 C   0  0  0  0  0  0  0  0  0  0  0  0
   -5.9459   28.9219    4.5882 C   0  0  0  0  0  0  0  0  0  0  0  0
   -5.9605   28.5382    3.1113 C   0  0  0  0  0  0  0  0  0  0  0  0
   -4.9382   27.4518    2.7955 C   0  0  0  0  0  0  0  0  0  0  0  0
   -5.0756   26.2953    3.6802 N   0  0  0  0  0  0  0  0  0  0  0  0
   -4.6487   25.0126    3.3287 C   0  0  0  0  0  0  0  0  0  0  0  0
   -4.4887   24.1251    4.1726 O   0  0  0  0  0  0  0  0  0  0  0  0
   -5.1166   26.6041    5.1122 C   0  0  0  0  0  0  0  0  0  0  0  0
   -6.0832   28.0118    6.9007 N   0  0  0  0  0  0  0  0  0  0  0  0
   -6.9862   27.8400    7.3425 H   0  0  0  0  0  0  0  0  0  0  0  0
   -5.6913   29.3958    7.1479 C   0  0  0  0  0  0  0  0  0  0  0  0
   -5.4795   32.2893    8.4473 C   0  0  0  0  0  0  0  0  0  0  0  0
   -4.0984   31.7828    8.7262 C   0  0  0  0  0  0  0  0  0  0  0  0
   -3.2170   32.5769    9.3739 C   0  0  0  0  0  0  0  0  0  0  0  0
   -1.8758   32.1100    9.6565 C   0  0  0  0  0  0  0  0  0  0  0  0
   -1.4760   30.8827    9.2890 C   0  0  0  0  0  0  0  0  0  0  0  0
   -2.3762   30.0172    8.6110 C   0  0  0  0  0  0  0  0  0  0  0  0
   -2.1823   28.7914    8.1806 N   0  0  0  0  0  0  0  0  0  0  0  0
   -3.3650   28.4214    7.6195 C   0  0  0  0  0  0  0  0  0  0  0  0
   -4.3065   29.4325    7.6806 C   0  0  0  0  0  0  0  0  0  0  0  0
   -3.6736   30.4849    8.3383 N   0  0  0  0  0  0  0  0  0  0  0  0
   -4.4036   24.6975    1.8581 C   0  0  0  0  0  0  0  0  0  0  0  0
   -5.6267   24.2120    1.1143 C   0  0  0  0  0  0  0  0  0  0  0  0
   -6.0781   22.8950    1.2845 C   0  0  0  0  0  0  0  0  0  0  0  0
   -7.1964   22.4321    0.5888 C   0  0  0  0  0  0  0  0  0  0  0  0
   -7.8678   23.2753   -0.2937 C   0  0  0  0  0  0  0  0  0  0  0  0
   -7.4173   24.5791   -0.4873 C   0  0  0  0  0  0  0  0  0  0  0  0
   -6.2990   25.0438    0.2070 C   0  0  0  0  0  0  0  0  0  0  0  0
 12 13  1  0  0  0
 13 14  2  0  0  0
 14 15  1  0  0  0
 15 16  2  0  0  0
 16 17  1  0  0  0
 17 18  2  0  0  0
 18 19  1  0  0  0
 19 20  2  0  0  0
 20 11  1  0  0  0
 11  9  1  0  0  0
  9  1  1  0  0  0
  1  2  1  0  0  0
  2  3  1  0  0  0
  3  4  1  0  0  0
  4  5  1  0  0  0
  5  6  1  0  0  0
  6  7  2  0  0  0
  6 22  1  0  0  0
 22 23  1  0  0  0
 23 24  2  0  0  0
 24 25  1  0  0  0
 25 26  2  0  0  0
 26 27  1  0  0  0
 27 28  2  0  0  0
  5  8  1  0  0  0
 20 21  1  0  0  0
 21 13  1  0  0  0
 21 17  1  0  0  0
  8  1  1  0  0  0
 28 23  1  0  0  0
  9 10  1  0  0  0
M  END
> <minimizedAffinity>
-10.50397

$$$$
OCNT-2315146


 37 41  0  0  0  0  0  0  0  0999 V2000
   -5.2872   25.4816    2.3874 C   0  0  0  0  0  0  0  0  0  0  0  0
   -4.1280   24.8739    2.9334 C   0  0  0  0  0  0  0  0  0  0  0  0
   -3.4599   25.4351    4.0270 C   0  0  0  0  0  0  0  0  0  0  0  0
   -3.9824   26.5979    4.5547 C   0  0  0  0  0  0  0  0  0  0  0  0
   -3.5255   27.4220    5.6717 C   0  0  0  0  0  0  0  0  0  0  0  0
   -2.5177   27.2028    6.3158 O   0  0  0  0  0  0  0  0  0  0  0  0
   -4.4259   28.4448    5.7997 N   0  0  0  0  0  0  0  0  0  0  0  0
   -5.3828   28.3941    4.8214 C   0  0  0  0  0  0  0  0  0  0  0  0
   -6.3005   29.1643    4.6113 O   0  0  0  0  0  0  0  0  0  0  0  0
   -5.1148   27.1939    4.0330 C   0  0  0  0  0  0  0  0  0  0  0  0
   -5.7925   26.6638    2.9522 C   0  0  0  0  0  0  0  0  0  0  0  0
   -4.2804   29.5779    6.7000 C   0  0  0  0  0  0  0  0  0  0  0  0
   -4.0472   30.9122    5.9964 C   0  0  0  0  0  0  0  0  0  0  0  0
   -3.8732   32.0046    7.0411 C   0  0  0  0  0  0  0  0  0  0  0  0
   -5.0622   32.0684    7.9720 C   0  0  0  0  0  0  0  0  0  0  0  0
   -5.3955   33.1045    8.5393 O   0  0  0  0  0  0  0  0  0  0  0  0
   -5.7253   30.8889    8.2046 N   0  0  0  0  0  0  0  0  0  0  0  0
   -5.5123   29.6664    7.6069 C   0  0  0  0  0  0  0  0  0  0  0  0
   -6.2489   28.7146    7.8585 O   0  0  0  0  0  0  0  0  0  0  0  0
   -6.5294   30.9471    8.8148 H   0  0  0  0  0  0  0  0  0  0  0  0
   -5.9886   24.8388    1.2123 C   0  0  0  0  0  0  0  0  0  0  0  0
   -6.9277   23.7171    1.6636 C   0  0  0  0  0  0  0  0  0  0  0  0
   -6.2881   22.3333    1.5293 C   0  0  0  0  0  0  0  0  0  0  0  0
   -6.8334   21.3770    2.4929 N   0  0  0  0  0  0  0  0  0  0  0  0
   -7.8154   21.1874    2.3038 H   0  0  0  0  0  0  0  0  0  0  0  0
  -10.1084   21.8047    6.3847 C   0  0  0  0  0  0  0  0  0  0  0  0
  -10.2886   21.4194    5.0624 C   0  0  0  0  0  0  0  0  0  0  0  0
   -9.1899   21.3810    4.2023 C   0  0  0  0  0  0  0  0  0  0  0  0
   -7.8936   21.7320    4.6548 C   0  0  0  0  0  0  0  0  0  0  0  0
   -7.7152   22.1071    5.9923 C   0  0  0  0  0  0  0  0  0  0  0  0
   -8.8248   22.1409    6.8282 C   0  0  0  0  0  0  0  0  0  0  0  0
   -6.5201   22.4300    6.4959 N   0  0  0  0  0  0  0  0  0  0  0  0
   -5.4808   22.3697    5.6576 C   0  0  0  0  0  0  0  0  0  0  0  0
   -5.5235   22.0331    4.3645 N   0  0  0  0  0  0  0  0  0  0  0  0
   -6.7294   21.7266    3.8596 C   0  0  0  0  0  0  0  0  0  0  0  0
  -11.3999   23.1892    7.8252 C   0  0  0  0  0  0  0  0  0  0  0  0
  -11.0845   21.8908    7.3381 O   0  0  0  0  0  0  0  0  0  0  0  0
 36 37  1  0  0  0
 37 26  1  0  0  0
 26 27  1  0  0  0
 27 28  2  0  0  0
 28 29  1  0  0  0
 29 30  1  0  0  0
 30 31  1  0  0  0
 30 32  2  0  0  0
 32 33  1  0  0  0
 33 34  2  0  0  0
 34 35  1  0  0  0
 35 24  1  0  0  0
 24 23  1  0  0  0
 23 22  1  0  0  0
 22 21  1  0  0  0
 21  1  1  0  0  0
  1  2  1  0  0  0
  2  3  2  0  0  0
  3  4  1  0  0  0
  4  5  1  0  0  0
  5  6  2  0  0  0
  5  7  1  0  0  0
  7 12  1  0  0  0
 12 13  1  0  0  0
 13 14  1  0  0  0
 14 15  1  0  0  0
 15 16  2  0  0  0
 15 17  1  0  0  0
 17 18  1  0  0  0
 18 19  2  0  0  0
  7  8  1  0  0  0
  8  9  2  0  0  0
  8 10  1  0  0  0
 10 11  1  0  0  0
 31 26  2  0  0  0
 11  1  2  0  0  0
 35 29  2  0  0  0
 10  4  2  0  0  0
 18 12  1  0  0  0
 24 25  1  0  0  0
 17 20  1  0  0  0
M  END
> <minimizedAffinity>
-9.93295

$$$$
OCNT-2315149


 28 33  0  0  0  0  0  0  0  0999 V2000
   -0.9675   27.3184    6.1700 O   0  0  0  0  0  0  0  0  0  0  0  0
   -2.1940   27.4451    6.0999 C   0  0  0  0  0  0  0  0  0  0  0  0
   -2.9441   26.6185    5.2420 N   0  0  0  0  0  0  0  0  0  0  0  0
   -2.1855   26.0130    4.1532 C   0  0  0  0  0  0  0  0  0  0  0  0
   -2.9568   24.9870    3.3833 C   0  0  0  0  0  0  0  0  0  0  0  0
   -4.2364   24.6620    3.6241 C   0  0  0  0  0  0  0  0  0  0  0  0
   -5.0200   25.3353    4.7074 C   0  0  0  0  0  0  0  0  0  0  0  0
   -4.4017   26.6772    5.1099 C   0  0  0  0  0  0  0  0  0  0  0  0
   -2.8599   28.4741    6.9294 C   0  0  0  0  0  0  0  0  0  0  0  0
   -4.1947   28.7412    6.9211 N   0  0  0  0  0  0  0  0  0  0  0  0
   -4.3556   29.7814    7.7775 N   0  0  0  0  0  0  0  0  0  0  0  0
   -3.1863   30.1755    8.3005 C   0  0  0  0  0  0  0  0  0  0  0  0
   -2.2050   29.3862    7.7794 C   0  0  0  0  0  0  0  0  0  0  0  0
   -0.8403   29.7338    8.2471 C   0  0  0  0  0  0  0  0  0  0  0  0
   -1.0953   30.8988    9.2310 C   0  0  0  0  0  0  0  0  0  0  0  0
   -1.6138   32.2385    8.7720 C   0  0  0  0  0  0  0  0  0  0  0  0
   -2.6057   31.2222    9.2637 C   0  0  0  0  0  0  0  0  0  0  0  0
   -5.2880   30.1516    7.9288 H   0  0  0  0  0  0  0  0  0  0  0  0
   -4.9166   23.6218    2.8340 C   0  0  0  0  0  0  0  0  0  0  0  0
   -4.8076   22.2984    3.2895 C   0  0  0  0  0  0  0  0  0  0  0  0
   -5.4231   21.2601    2.5982 C   0  0  0  0  0  0  0  0  0  0  0  0
   -6.1521   21.5337    1.4430 C   0  0  0  0  0  0  0  0  0  0  0  0
   -6.2756   22.8462    0.9602 C   0  0  0  0  0  0  0  0  0  0  0  0
   -7.0133   23.1039   -0.2074 C   0  0  0  0  0  0  0  0  0  0  0  0
   -7.1458   24.4008   -0.7023 C   0  0  0  0  0  0  0  0  0  0  0  0
   -6.5417   25.4590   -0.0356 C   0  0  0  0  0  0  0  0  0  0  0  0
   -5.8057   25.2198    1.1268 C   0  0  0  0  0  0  0  0  0  0  0  0
   -5.6533   23.9152    1.6537 C   0  0  0  0  0  0  0  0  0  0  0  0
  1  2  2  0  0  0
  2  9  1  0  0  0
  9 10  2  0  0  0
 10 11  1  0  0  0
 11 12  1  0  0  0
 12 13  2  0  0  0
 13 14  1  0  0  0
 14 15  1  0  0  0
 15 16  1  0  0  0
 16 17  1  0  0  0
  2  3  1  0  0  0
  3  4  1  0  0  0
  4  5  1  0  0  0
  5  6  2  0  0  0
  6 19  1  0  0  0
 19 20  2  0  0  0
 20 21  1  0  0  0
 21 22  2  0  0  0
 22 23  1  0  0  0
 23 24  2  0  0  0
 24 25  1  0  0  0
 25 26  2  0  0  0
 26 27  1  0  0  0
 27 28  2  0  0  0
  6  7  1  0  0  0
  7  8  1  0  0  0
 13  9  1  0  0  0
 17 15  1  0  0  0
  8  3  1  0  0  0
 17 12  1  0  0  0
 28 19  1  0  0  0
 28 23  1  0  0  0
 11 18  1  0  0  0
M  END
> <minimizedAffinity>
-12.53299

$$$$
OCNT-2315150


 23 26  0  0  0  0  0  0  0  0999 V2000
   -6.1632   27.3686    3.1432 O   0  0  0  0  0  0  0  0  0  0  0  0
   -5.0404   27.0526    3.5482 C   0  0  0  0  0  0  0  0  0  0  0  0
   -4.4956   27.4881    4.7463 N   0  0  0  0  0  0  0  0  0  0  0  0
   -3.1978   27.0722    5.3140 C   0  0  0  0  0  0  0  0  0  0  0  0
   -2.9648   27.8964    6.5858 C   0  0  0  0  0  0  0  0  0  0  0  0
   -4.2948   28.5495    6.7771 C   0  0  0  0  0  0  0  0  0  0  0  0
   -4.6960   29.3378    7.8469 C   0  0  0  0  0  0  0  0  0  0  0  0
   -5.9755   29.8915    7.8117 C   0  0  0  0  0  0  0  0  0  0  0  0
   -6.5124   30.8733    9.1197 Cl  0  0  0  0  0  0  0  0  0  0  0  0
   -6.8274   29.6631    6.7231 C   0  0  0  0  0  0  0  0  0  0  0  0
   -6.4074   28.8700    5.6484 C   0  0  0  0  0  0  0  0  0  0  0  0
   -5.1381   28.3157    5.6882 C   0  0  0  0  0  0  0  0  0  0  0  0
   -4.1734   26.1540    2.6817 C   0  0  0  0  0  0  0  0  0  0  0  0
   -4.8421   24.8620    2.3661 C   0  0  0  0  0  0  0  0  0  0  0  0
   -4.6353   23.7905    3.1486 N   0  0  0  0  0  0  0  0  0  0  0  0
   -5.3548   22.8197    2.5578 N   0  0  0  0  0  0  0  0  0  0  0  0
   -6.0259   23.2189    1.4349 C   0  0  0  0  0  0  0  0  0  0  0  0
   -6.8666   22.5245    0.5593 C   0  0  0  0  0  0  0  0  0  0  0  0
   -7.3967   23.2428   -0.5173 C   0  0  0  0  0  0  0  0  0  0  0  0
   -7.0940   24.5917   -0.7032 C   0  0  0  0  0  0  0  0  0  0  0  0
   -6.2481   25.2666    0.1855 C   0  0  0  0  0  0  0  0  0  0  0  0
   -5.7067   24.5621    1.2765 C   0  0  0  0  0  0  0  0  0  0  0  0
   -5.3466   21.8950    2.9721 H   0  0  0  0  0  0  0  0  0  0  0  0
  1  2  2  0  0  0
  2 13  1  0  0  0
 13 14  1  0  0  0
 14 15  2  0  0  0
 15 16  1  0  0  0
 16 17  1  0  0  0
 17 18  2  0  0  0
 18 19  1  0  0  0
 19 20  2  0  0  0
 20 21  1  0  0  0
 21 22  2  0  0  0
  2  3  1  0  0  0
  3  4  1  0  0  0
  4  5  1  0  0  0
  5  6  1  0  0  0
  6  7  1  0  0  0
  7  8  2  0  0  0
  8  9  1  0  0  0
  8 10  1  0  0  0
 10 11  2  0  0  0
 11 12  1  0  0  0
 22 14  1  0  0  0
 12  3  1  0  0  0
 22 17  1  0  0  0
 12  6  2  0  0  0
 16 23  1  0  0  0
M  END
> <minimizedAffinity>
-9.50430

$$$$
OCNT-2315157


 27 29  0  0  0  0  0  0  0  0999 V2000
   -3.9837   27.0234    5.0011 C   0  0  0  0  0  0  0  0  0  0  0  0
   -5.0171   27.3292    5.5918 O   0  0  0  0  0  0  0  0  0  0  0  0
   -2.7266   27.3637    5.4694 N   0  0  0  0  0  0  0  0  0  0  0  0
   -1.9714   26.7896    5.0940 H   0  0  0  0  0  0  0  0  0  0  0  0
   -7.3584   22.9699   -0.5579 C   0  0  0  0  0  0  0  0  0  0  0  0
   -6.4955   23.4122    0.5876 C   0  0  0  0  0  0  0  0  0  0  0  0
   -5.6449   22.4943    1.2293 C   0  0  0  0  0  0  0  0  0  0  0  0
   -4.8146   22.8978    2.2786 C   0  0  0  0  0  0  0  0  0  0  0  0
   -4.8224   24.2313    2.6705 C   0  0  0  0  0  0  0  0  0  0  0  0
   -4.0260   24.7968    3.8110 C   0  0  0  0  0  0  0  0  0  0  0  0
   -4.0138   26.3230    3.6501 C   0  0  0  0  0  0  0  0  0  0  0  0
   -5.5082   26.7775    2.6901 S   0  0  0  0  0  0  0  0  0  0  0  0
   -5.6581   25.1460    2.0290 C   0  0  0  0  0  0  0  0  0  0  0  0
   -6.4907   24.7546    0.9907 C   0  0  0  0  0  0  0  0  0  0  0  0
   -2.5688   27.9304    6.8016 C   0  0  0  0  0  0  0  0  0  0  0  0
   -1.9221   29.3364    6.8147 C   0  0  0  0  0  0  0  0  0  0  0  0
   -2.7918   30.3122    7.5425 N   0  0  0  0  0  0  0  0  0  0  0  0
   -4.0360   29.7161    8.0725 C   0  0  0  0  0  0  0  0  0  0  0  0
   -5.3358   30.2519    7.4310 C   0  0  0  0  0  0  0  0  0  0  0  0
   -5.4817   31.7131    7.5056 N   0  0  0  0  0  0  0  0  0  0  0  0
   -4.1807   32.3979    7.4683 C   0  0  0  0  0  0  0  0  0  0  0  0
   -3.0468   31.5717    6.8206 C   0  0  0  0  0  0  0  0  0  0  0  0
   -6.0628   32.0261    6.7289 H   0  0  0  0  0  0  0  0  0  0  0  0
   -0.4438   29.1997    7.2546 C   0  0  0  0  0  0  0  0  0  0  0  0
   -0.2062   29.9296    8.3731 F   0  0  0  0  0  0  0  0  0  0  0  0
    0.4177   29.6306    6.3071 F   0  0  0  0  0  0  0  0  0  0  0  0
   -0.1218   27.9188    7.5477 F   0  0  0  0  0  0  0  0  0  0  0  0
  5  6  1  0  0  0
  6  7  1  0  0  0
  7  8  2  0  0  0
  8  9  1  0  0  0
  9 10  1  0  0  0
 10 11  1  0  0  0
 11  1  1  0  0  0
  1  2  2  0  0  0
  1  3  1  0  0  0
  3 15  1  0  0  0
 15 16  1  0  0  0
 16 17  1  0  0  0
 17 18  1  0  0  0
 18 19  1  0  0  0
 19 20  1  0  0  0
 20 21  1  0  0  0
 21 22  1  0  0  0
 16 24  1  0  0  0
 24 25  1  0  0  0
 24 26  1  0  0  0
 24 27  1  0  0  0
 11 12  1  0  0  0
 12 13  1  0  0  0
 13 14  1  0  0  0
 14  6  2  0  0  0
 13  9  2  0  0  0
 22 17  1  0  0  0
  3  4  1  0  0  0
 20 23  1  0  0  0
M  END
> <minimizedAffinity>
-9.09010

$$$$
OCNT-2315159


 25 27  0  0  0  0  0  0  0  0999 V2000
   -6.1589   28.9647    5.2103 C   0  0  0  0  0  0  0  0  0  0  0  0
   -6.1563   29.3524    3.7297 C   0  0  0  0  0  0  0  0  0  0  0  0
   -5.8400   28.0593    2.9787 C   0  0  0  0  0  0  0  0  0  0  0  0
   -5.4766   27.0968    4.0248 N   0  0  0  0  0  0  0  0  0  0  0  0
   -6.3126   27.4496    5.1751 C   0  0  0  0  0  0  0  0  0  0  0  0
   -7.2450   29.6356    6.0431 C   0  0  0  0  0  0  0  0  0  0  0  0
   -6.4555   29.0782    8.7249 O   0  0  0  0  0  0  0  0  0  0  0  0
   -6.3328   30.2132    8.2787 C   0  0  0  0  0  0  0  0  0  0  0  0
   -6.6938   30.5765    6.9997 N   0  0  0  0  0  0  0  0  0  0  0  0
   -6.5620   31.5370    6.7046 H   0  0  0  0  0  0  0  0  0  0  0  0
   -5.7909   31.3674    9.0862 C   0  0  0  0  0  0  0  0  0  0  0  0
   -5.2093   32.4377    8.1743 C   0  0  0  0  0  0  0  0  0  0  0  0
   -3.8152   32.1807    7.8637 N   0  0  0  0  0  0  0  0  0  0  0  0
   -2.7317   32.5033    8.6298 C   0  0  0  0  0  0  0  0  0  0  0  0
   -1.6296   32.0727    7.9302 C   0  0  0  0  0  0  0  0  0  0  0  0
   -2.1534   31.5090    6.7522 C   0  0  0  0  0  0  0  0  0  0  0  0
   -3.4867   31.5664    6.7106 N   0  0  0  0  0  0  0  0  0  0  0  0
   -5.6607   25.6950    3.6257 C   0  0  0  0  0  0  0  0  0  0  0  0
   -4.8977   25.3338    2.3401 C   0  0  0  0  0  0  0  0  0  0  0  0
   -5.7918   24.6350    1.3427 C   0  0  0  0  0  0  0  0  0  0  0  0
   -6.2955   25.3276    0.2339 C   0  0  0  0  0  0  0  0  0  0  0  0
   -7.0972   24.6745   -0.7032 C   0  0  0  0  0  0  0  0  0  0  0  0
   -7.3989   23.3238   -0.5429 C   0  0  0  0  0  0  0  0  0  0  0  0
   -6.9019   22.6248    0.5557 C   0  0  0  0  0  0  0  0  0  0  0  0
   -6.1006   23.2766    1.4943 C   0  0  0  0  0  0  0  0  0  0  0  0
  7  8  2  0  0  0
  8 11  1  0  0  0
 11 12  1  0  0  0
 12 13  1  0  0  0
 13 14  1  0  0  0
 14 15  2  0  0  0
 15 16  1  0  0  0
 16 17  2  0  0  0
  8  9  1  0  0  0
  9  6  1  0  0  0
  6  1  1  0  0  0
  1  2  1  0  0  0
  2  3  1  0  0  0
  3  4  1  0  0  0
  4 18  1  0  0  0
 18 19  1  0  0  0
 19 20  1  0  0  0
 20 21  2  0  0  0
 21 22  1  0  0  0
 22 23  2  0  0  0
 23 24  1  0  0  0
 24 25  2  0  0  0
  4  5  1  0  0  0
 17 13  1  0  0  0
  5  1  1  0  0  0
 25 20  1  0  0  0
  9 10  1  0  0  0
M  END
> <minimizedAffinity>
-8.82869

$$$$
OCNT-2315166


 27 29  0  0  0  0  0  0  0  0999 V2000
   -5.0279   26.6472    4.2062 N   0  0  0  0  0  0  0  0  0  0  0  0
   -5.8916   27.7265    4.1975 C   0  0  0  0  0  0  0  0  0  0  0  0
   -6.1630   28.3435    3.1761 O   0  0  0  0  0  0  0  0  0  0  0  0
   -4.9817   26.0863    5.0435 H   0  0  0  0  0  0  0  0  0  0  0  0
   -2.9837   25.9993    3.0315 C   0  0  0  0  0  0  0  0  0  0  0  0
   -4.5149   26.0500    2.9802 C   0  0  0  0  0  0  0  0  0  0  0  0
   -5.1682   24.6826    2.7758 C   0  0  0  0  0  0  0  0  0  0  0  0
   -5.0710   23.7277    3.8109 C   0  0  0  0  0  0  0  0  0  0  0  0
   -5.6628   22.4782    3.6885 C   0  0  0  0  0  0  0  0  0  0  0  0
   -6.3667   22.1621    2.5356 C   0  0  0  0  0  0  0  0  0  0  0  0
   -6.9305   20.9482    2.4506 F   0  0  0  0  0  0  0  0  0  0  0  0
   -6.5124   23.0750    1.4873 C   0  0  0  0  0  0  0  0  0  0  0  0
   -7.2534   22.7192    0.3444 C   0  0  0  0  0  0  0  0  0  0  0  0
   -7.4382   23.6163   -0.7033 C   0  0  0  0  0  0  0  0  0  0  0  0
   -6.8814   24.8812   -0.6188 C   0  0  0  0  0  0  0  0  0  0  0  0
   -6.1370   25.2467    0.5084 C   0  0  0  0  0  0  0  0  0  0  0  0
   -5.9213   24.3620    1.5948 C   0  0  0  0  0  0  0  0  0  0  0  0
   -6.4785   28.0419    5.5852 C   0  0  0  0  0  0  0  0  0  0  0  0
   -5.6139   28.8402    6.4701 N   0  0  0  0  0  0  0  0  0  0  0  0
   -5.1568   30.0899    5.8765 C   0  0  0  0  0  0  0  0  0  0  0  0
   -3.9754   30.6553    6.6773 C   0  0  0  0  0  0  0  0  0  0  0  0
   -4.0908   30.4009    8.1913 C   0  0  0  0  0  0  0  0  0  0  0  0
   -5.5569   30.1955    8.5840 C   0  0  0  0  0  0  0  0  0  0  0  0
   -6.1841   29.0247    7.8105 C   0  0  0  0  0  0  0  0  0  0  0  0
   -3.4275   31.5264    8.9901 C   0  0  0  0  0  0  0  0  0  0  0  0
   -2.8344   31.0182   10.1804 O   0  0  0  0  0  0  0  0  0  0  0  0
   -2.2112   30.3265    9.9186 H   0  0  0  0  0  0  0  0  0  0  0  0
  5  6  1  0  0  0
  6  1  1  0  0  0
  1  2  1  0  0  0
  2  3  2  0  0  0
  2 18  1  0  0  0
 18 19  1  0  0  0
 19 20  1  0  0  0
 20 21  1  0  0  0
 21 22  1  0  0  0
 22 25  1  0  0  0
 25 26  1  0  0  0
 22 23  1  0  0  0
 23 24  1  0  0  0
  6  7  1  0  0  0
  7  8  2  0  0  0
  8  9  1  0  0  0
  9 10  2  0  0  0
 10 11  1  0  0  0
 10 12  1  0  0  0
 12 13  2  0  0  0
 13 14  1  0  0  0
 14 15  2  0  0  0
 15 16  1  0  0  0
 16 17  2  0  0  0
 24 19  1  0  0  0
 17  7  1  0  0  0
 17 12  1  0  0  0
  1  4  1  0  0  0
 26 27  1  0  0  0
M  END
> <minimizedAffinity>
-9.26617

$$$$
OCNT-2315191


 29 32  0  0  0  0  0  0  0  0999 V2000
   -5.4971   27.8149    5.8670 O   0  0  0  0  0  0  0  0  0  0  0  0
   -4.4847   27.5508    5.2255 C   0  0  0  0  0  0  0  0  0  0  0  0
   -3.2367   28.0180    5.5846 N   0  0  0  0  0  0  0  0  0  0  0  0
   -2.4392   27.5368    5.1908 H   0  0  0  0  0  0  0  0  0  0  0  0
   -3.0414   28.7241    6.8333 C   0  0  0  0  0  0  0  0  0  0  0  0
   -2.7303   30.2218    6.6608 C   0  0  0  0  0  0  0  0  0  0  0  0
   -1.5891   30.5438    7.6464 C   0  0  0  0  0  0  0  0  0  0  0  0
   -1.5229   29.3284    8.5715 C   0  0  0  0  0  0  0  0  0  0  0  0
   -1.8485   28.1794    7.6311 C   0  0  0  0  0  0  0  0  0  0  0  0
   -2.1588   26.9874    8.3322 O   0  0  0  0  0  0  0  0  0  0  0  0
   -2.9437   27.1460    8.8852 H   0  0  0  0  0  0  0  0  0  0  0  0
   -1.7770   31.8522    8.4142 C   0  0  0  0  0  0  0  0  0  0  0  0
   -3.1679   32.2394    8.5368 N   0  0  0  0  0  0  0  0  0  0  0  0
   -3.7531   33.3295    7.9556 C   0  0  0  0  0  0  0  0  0  0  0  0
   -5.0604   33.2973    8.3815 C   0  0  0  0  0  0  0  0  0  0  0  0
   -5.2758   32.2253    9.2081 N   0  0  0  0  0  0  0  0  0  0  0  0
   -4.1186   31.6071    9.2846 C   0  0  0  0  0  0  0  0  0  0  0  0
   -4.5143   26.6916    4.0431 C   0  0  0  0  0  0  0  0  0  0  0  0
   -3.4584   26.2860    3.2449 C   0  0  0  0  0  0  0  0  0  0  0  0
   -3.9503   25.4877    2.2430 N   0  0  0  0  0  0  0  0  0  0  0  0
   -5.3166   25.3633    2.3535 C   0  0  0  0  0  0  0  0  0  0  0  0
   -5.6805   26.1014    3.4670 C   0  0  0  0  0  0  0  0  0  0  0  0
   -3.3899   25.0384    1.5312 H   0  0  0  0  0  0  0  0  0  0  0  0
   -6.1267   24.5629    1.4328 C   0  0  0  0  0  0  0  0  0  0  0  0
   -6.5650   23.2853    1.8069 C   0  0  0  0  0  0  0  0  0  0  0  0
   -7.3348   22.5098    0.9357 C   0  0  0  0  0  0  0  0  0  0  0  0
   -7.6793   23.0051   -0.3195 C   0  0  0  0  0  0  0  0  0  0  0  0
   -7.2572   24.2760   -0.7028 C   0  0  0  0  0  0  0  0  0  0  0  0
   -6.4860   25.0510    0.1684 C   0  0  0  0  0  0  0  0  0  0  0  0
  1  2  2  0  0  0
  2  3  1  0  0  0
  3  5  1  0  0  0
  5  6  1  0  0  0
  6  7  1  0  0  0
  7 12  1  0  0  0
 12 13  1  0  0  0
 13 14  1  0  0  0
 14 15  2  0  0  0
 15 16  1  0  0  0
 16 17  2  0  0  0
  7  8  1  0  0  0
  8  9  1  0  0  0
  9 10  1  0  0  0
  2 18  1  0  0  0
 18 19  2  0  0  0
 19 20  1  0  0  0
 20 21  1  0  0  0
 21 24  1  0  0  0
 24 25  2  0  0  0
 25 26  1  0  0  0
 26 27  2  0  0  0
 27 28  1  0  0  0
 28 29  2  0  0  0
 21 22  2  0  0  0
  9  5  1  0  0  0
 22 18  1  0  0  0
 17 13  1  0  0  0
 29 24  1  0  0  0
  3  4  1  0  0  0
 10 11  1  0  0  0
 20 23  1  0  0  0
M  END
> <minimizedAffinity>
-10.03134

$$$$
OCNT-2315201


 24 26  0  0  0  0  0  0  0  0999 V2000
   -4.2330   26.0271    4.3225 N   0  0  0  0  0  0  0  0  0  0  0  0
   -4.8396   24.8821    4.9900 C   0  0  0  0  0  0  0  0  0  0  0  0
   -3.0612   26.4841    4.9296 C   0  0  0  0  0  0  0  0  0  0  0  0
   -1.8004   25.9496    4.6260 C   0  0  0  0  0  0  0  0  0  0  0  0
   -0.6608   26.4115    5.2733 C   0  0  0  0  0  0  0  0  0  0  0  0
   -0.6269   27.3744    6.2163 N   0  0  0  0  0  0  0  0  0  0  0  0
   -1.8492   27.8791    6.4817 C   0  0  0  0  0  0  0  0  0  0  0  0
   -3.0596   27.5093    5.9071 C   0  0  0  0  0  0  0  0  0  0  0  0
   -4.0130   28.3754    6.5205 C   0  0  0  0  0  0  0  0  0  0  0  0
   -5.4710   28.4614    6.2619 C   0  0  0  0  0  0  0  0  0  0  0  0
   -3.4536   29.1905    7.4292 N   0  0  0  0  0  0  0  0  0  0  0  0
   -2.1436   28.8682    7.3779 N   0  0  0  0  0  0  0  0  0  0  0  0
   -1.2124   29.5690    8.2248 C   0  0  0  0  0  0  0  0  0  0  0  0
   -4.4098   26.2346    2.8644 C   0  0  0  0  0  0  0  0  0  0  0  0
   -5.8228   26.8042    2.6602 C   0  0  0  0  0  0  0  0  0  0  0  0
   -4.2418   24.9688    1.9848 C   0  0  0  0  0  0  0  0  0  0  0  0
   -6.2317   23.4304    1.5718 C   0  0  0  0  0  0  0  0  0  0  0  0
   -7.3631   23.0837    0.8260 C   0  0  0  0  0  0  0  0  0  0  0  0
   -7.7387   23.8424   -0.2850 C   0  0  0  0  0  0  0  0  0  0  0  0
   -6.9846   24.9482   -0.6632 C   0  0  0  0  0  0  0  0  0  0  0  0
   -5.8546   25.3018    0.0716 C   0  0  0  0  0  0  0  0  0  0  0  0
   -5.4710   24.5570    1.1988 C   0  0  0  0  0  0  0  0  0  0  0  0
   -5.5006   21.3586    2.5047 C   0  0  0  0  0  0  0  0  0  0  0  0
   -5.7802   22.7430    2.6684 O   0  0  0  0  0  0  0  0  0  0  0  0
 23 24  1  0  0  0
 24 17  1  0  0  0
 17 18  2  0  0  0
 18 19  1  0  0  0
 19 20  2  0  0  0
 20 21  1  0  0  0
 21 22  2  0  0  0
 22 16  1  0  0  0
 16 14  1  0  0  0
 14 15  1  0  0  0
 14  1  1  0  0  0
  1  2  1  0  0  0
  1  3  1  0  0  0
  3  4  2  0  0  0
  4  5  1  0  0  0
  5  6  2  0  0  0
  6  7  1  0  0  0
  7  8  2  0  0  0
  8  9  1  0  0  0
  9 10  1  0  0  0
  9 11  2  0  0  0
 11 12  1  0  0  0
 12 13  1  0  0  0
 22 17  1  0  0  0
  8  3  1  0  0  0
 12  7  1  0  0  0
M  END
> <minimizedAffinity>
-9.01860

$$$$
OCNT-2315218


 27 31  0  0  0  0  0  0  0  0999 V2000
   -0.3457   27.6242    7.3665 N   0  0  0  0  0  0  0  0  0  0  0  0
    0.1892   26.9527    7.9173 H   0  0  0  0  0  0  0  0  0  0  0  0
   -1.0119   27.1437    6.2051 C   0  0  0  0  0  0  0  0  0  0  0  0
   -0.2687   26.4663    5.2292 C   0  0  0  0  0  0  0  0  0  0  0  0
   -0.8875   25.9392    4.0849 C   0  0  0  0  0  0  0  0  0  0  0  0
   -2.2714   26.1044    3.9508 C   0  0  0  0  0  0  0  0  0  0  0  0
   -3.1352   25.7061    2.9656 N   0  0  0  0  0  0  0  0  0  0  0  0
   -4.3123   26.1360    3.3847 C   0  0  0  0  0  0  0  0  0  0  0  0
   -4.2817   26.7992    4.5853 O   0  0  0  0  0  0  0  0  0  0  0  0
   -2.9666   26.7748    4.9429 C   0  0  0  0  0  0  0  0  0  0  0  0
   -2.3960   27.3131    6.0899 C   0  0  0  0  0  0  0  0  0  0  0  0
   -5.6377   25.9186    2.5905 C   0  0  0  0  0  0  0  0  0  0  0  0
   -6.1891   24.5256    2.4303 C   0  0  0  0  0  0  0  0  0  0  0  0
   -5.5908   25.2348    1.2487 C   0  0  0  0  0  0  0  0  0  0  0  0
    0.4945   29.0897    7.2464 S   0  0  0  0  0  0  0  0  0  0  0  0
    0.7855   29.3605    5.8553 O   0  0  0  0  0  0  0  0  0  0  0  0
    1.5532   29.0247    8.2319 O   0  0  0  0  0  0  0  0  0  0  0  0
   -5.6179   33.5260    8.0384 C   0  0  0  0  0  0  0  0  0  0  0  0
   -4.1267   33.3219    7.8260 C   0  0  0  0  0  0  0  0  0  0  0  0
   -3.8233   32.2044    6.8155 C   0  0  0  0  0  0  0  0  0  0  0  0
   -2.6235   31.6226    7.4593 C   0  0  0  0  0  0  0  0  0  0  0  0
   -1.7159   30.7031    6.9653 C   0  0  0  0  0  0  0  0  0  0  0  0
   -0.6999   30.2685    7.8267 C   0  0  0  0  0  0  0  0  0  0  0  0
   -0.5956   30.7566    9.1441 C   0  0  0  0  0  0  0  0  0  0  0  0
   -1.5302   31.6779    9.6213 C   0  0  0  0  0  0  0  0  0  0  0  0
   -2.5261   32.0941    8.7601 C   0  0  0  0  0  0  0  0  0  0  0  0
   -3.5124   32.9829    9.0977 O   0  0  0  0  0  0  0  0  0  0  0  0
 18 19  1  0  0  0
 19 20  1  0  0  0
 20 21  1  0  0  0
 21 22  1  0  0  0
 22 23  2  0  0  0
 23 15  1  0  0  0
 15 16  2  0  0  0
 15 17  2  0  0  0
 15  1  1  0  0  0
  1  3  1  0  0  0
  3  4  2  0  0  0
  4  5  1  0  0  0
  5  6  2  0  0  0
  6  7  1  0  0  0
  7  8  2  0  0  0
  8 12  1  0  0  0
 12 13  1  0  0  0
 13 14  1  0  0  0
  8  9  1  0  0  0
  9 10  1  0  0  0
 10 11  2  0  0  0
 23 24  1  0  0  0
 24 25  2  0  0  0
 25 26  1  0  0  0
 26 27  1  0  0  0
 27 19  1  0  0  0
 26 21  2  0  0  0
 11  3  1  0  0  0
 10  6  1  0  0  0
 14 12  1  0  0  0
  1  2  1  0  0  0
M  END
> <minimizedAffinity>
-10.53844

$$$$
OCNT-2315230


 22 24  0  0  0  0  0  0  0  0999 V2000
   -1.8598   28.7967    6.7829 N   0  0  0  0  0  0  0  0  0  0  0  0
   -2.4263   27.5562    6.6063 C   0  0  0  0  0  0  0  0  0  0  0  0
   -2.0028   26.5328    7.1309 O   0  0  0  0  0  0  0  0  0  0  0  0
   -2.1015   29.5515    6.1540 H   0  0  0  0  0  0  0  0  0  0  0  0
   -3.5757   27.5206    5.6843 C   0  0  0  0  0  0  0  0  0  0  0  0
   -4.7075   28.1949    5.9704 C   0  0  0  0  0  0  0  0  0  0  0  0
   -5.9643   27.9962    4.7388 S   0  0  0  0  0  0  0  0  0  0  0  0
   -4.8743   26.9968    3.8371 C   0  0  0  0  0  0  0  0  0  0  0  0
   -4.7944   26.2794    2.6815 C   0  0  0  0  0  0  0  0  0  0  0  0
   -3.5358   25.7137    2.5861 N   0  0  0  0  0  0  0  0  0  0  0  0
   -2.8815   26.1060    3.6660 C   0  0  0  0  0  0  0  0  0  0  0  0
   -3.6751   26.8665    4.4756 N   0  0  0  0  0  0  0  0  0  0  0  0
   -0.6513   28.9596    7.5709 C   0  0  0  0  0  0  0  0  0  0  0  0
   -0.7782   30.1172    8.5561 C   0  0  0  0  0  0  0  0  0  0  0  0
   -5.0346   33.8901    8.0892 C   0  0  0  0  0  0  0  0  0  0  0  0
   -4.3474   32.5573    8.4387 C   0  0  0  0  0  0  0  0  0  0  0  0
   -5.4409   31.5867    8.9293 C   0  0  0  0  0  0  0  0  0  0  0  0
   -3.3089   32.7953    9.5491 C   0  0  0  0  0  0  0  0  0  0  0  0
   -2.4508   31.5615    9.8299 C   0  0  0  0  0  0  0  0  0  0  0  0
   -2.1812   30.7315    8.5687 C   0  0  0  0  0  0  0  0  0  0  0  0
   -2.3053   31.5620    7.4133 O   0  0  0  0  0  0  0  0  0  0  0  0
   -3.6534   31.9836    7.1781 C   0  0  0  0  0  0  0  0  0  0  0  0
 15 16  1  0  0  0
 16 17  1  0  0  0
 16 18  1  0  0  0
 18 19  1  0  0  0
 19 20  1  0  0  0
 20 14  1  0  0  0
 14 13  1  0  0  0
 13  1  1  0  0  0
  1  2  1  0  0  0
  2  3  2  0  0  0
  2  5  1  0  0  0
  5  6  2  0  0  0
  6  7  1  0  0  0
  7  8  1  0  0  0
  8  9  2  0  0  0
  9 10  1  0  0  0
 10 11  2  0  0  0
 11 12  1  0  0  0
 20 21  1  0  0  0
 21 22  1  0  0  0
 22 16  1  0  0  0
 12  5  1  0  0  0
 12  8  1  0  0  0
  1  4  1  0  0  0
M  END
> <minimizedAffinity>
-8.04889

$$$$
OCNT-2315245


 28 31  0  0  0  0  0  0  0  0999 V2000
   -4.7777   28.9018    6.7799 C   0  0  0  0  0  0  0  0  0  0  0  0
   -5.7418   28.7654    7.5139 O   0  0  0  0  0  0  0  0  0  0  0  0
   -4.8157   28.9365    5.4045 N   0  0  0  0  0  0  0  0  0  0  0  0
   -3.9225   28.7854    4.9439 H   0  0  0  0  0  0  0  0  0  0  0  0
    0.4018   29.0381    8.7104 O   0  0  0  0  0  0  0  0  0  0  0  0
   -0.7539   29.0734    8.3046 C   0  0  0  0  0  0  0  0  0  0  0  0
   -1.2718   28.1026    7.4801 N   0  0  0  0  0  0  0  0  0  0  0  0
   -2.5466   28.0529    7.0016 N   0  0  0  0  0  0  0  0  0  0  0  0
   -3.3628   29.0124    7.3420 C   0  0  0  0  0  0  0  0  0  0  0  0
   -2.9751   30.1569    8.1895 C   0  0  0  0  0  0  0  0  0  0  0  0
   -3.8361   31.2127    8.5104 C   0  0  0  0  0  0  0  0  0  0  0  0
   -3.3846   32.2626    9.3164 C   0  0  0  0  0  0  0  0  0  0  0  0
   -2.0766   32.2671    9.7995 C   0  0  0  0  0  0  0  0  0  0  0  0
   -1.2130   31.2221    9.4752 C   0  0  0  0  0  0  0  0  0  0  0  0
   -1.6659   30.1714    8.6681 C   0  0  0  0  0  0  0  0  0  0  0  0
   -0.6550   27.3359    7.2273 H   0  0  0  0  0  0  0  0  0  0  0  0
   -6.0282   28.6006    4.7036 C   0  0  0  0  0  0  0  0  0  0  0  0
   -5.9477   27.2239    4.1194 C   0  0  0  0  0  0  0  0  0  0  0  0
   -5.7096   27.0157    2.7595 C   0  0  0  0  0  0  0  0  0  0  0  0
   -5.6650   25.7173    2.2491 C   0  0  0  0  0  0  0  0  0  0  0  0
   -5.8690   24.6505    3.1198 C   0  0  0  0  0  0  0  0  0  0  0  0
   -6.1129   24.8306    4.4438 N   0  0  0  0  0  0  0  0  0  0  0  0
   -6.1500   26.1001    4.9089 C   0  0  0  0  0  0  0  0  0  0  0  0
   -5.8309   23.3118    2.6424 N   0  0  0  0  0  0  0  0  0  0  0  0
   -6.2693   22.8053    1.4380 C   0  0  0  0  0  0  0  0  0  0  0  0
   -6.0008   21.4565    1.4786 C   0  0  0  0  0  0  0  0  0  0  0  0
   -5.4133   21.1111    2.6623 N   0  0  0  0  0  0  0  0  0  0  0  0
   -5.3232   22.2365    3.3379 C   0  0  0  0  0  0  0  0  0  0  0  0
  5  6  2  0  0  0
  6  7  1  0  0  0
  7  8  1  0  0  0
  8  9  2  0  0  0
  9  1  1  0  0  0
  1  2  2  0  0  0
  1  3  1  0  0  0
  3 17  1  0  0  0
 17 18  1  0  0  0
 18 19  2  0  0  0
 19 20  1  0  0  0
 20 21  2  0  0  0
 21 24  1  0  0  0
 24 25  1  0  0  0
 25 26  2  0  0  0
 26 27  1  0  0  0
 27 28  2  0  0  0
 21 22  1  0  0  0
 22 23  2  0  0  0
  9 10  1  0  0  0
 10 11  2  0  0  0
 11 12  1  0  0  0
 12 13  2  0  0  0
 13 14  1  0  0  0
 14 15  2  0  0  0
 15  6  1  0  0  0
 23 18  1  0  0  0
 15 10  1  0  0  0
 28 24  1  0  0  0
  7 16  1  0  0  0
  3  4  1  0  0  0
M  END
> <minimizedAffinity>
-10.10615

$$$$
OCNT-2315252


 30 32  0  0  0  0  0  0  0  0999 V2000
   -6.1409   28.6533    7.1329 N   0  0  0  0  0  0  0  0  0  0  0  0
   -5.5929   28.4193    5.8843 C   0  0  0  0  0  0  0  0  0  0  0  0
   -5.4846   29.2979    5.0399 O   0  0  0  0  0  0  0  0  0  0  0  0
   -5.1843   27.1078    5.7773 N   0  0  0  0  0  0  0  0  0  0  0  0
   -6.6697   27.8727    7.4965 H   0  0  0  0  0  0  0  0  0  0  0  0
   -5.0388   26.6490    6.6628 H   0  0  0  0  0  0  0  0  0  0  0  0
   -4.6782   26.4621    4.6255 C   0  0  0  0  0  0  0  0  0  0  0  0
   -5.5300   25.9393    3.6392 C   0  0  0  0  0  0  0  0  0  0  0  0
   -5.0377   25.2876    2.4925 C   0  0  0  0  0  0  0  0  0  0  0  0
   -3.6483   25.1686    2.3583 C   0  0  0  0  0  0  0  0  0  0  0  0
   -2.7853   25.6637    3.3383 C   0  0  0  0  0  0  0  0  0  0  0  0
   -3.2854   26.3092    4.4801 C   0  0  0  0  0  0  0  0  0  0  0  0
   -2.3052   26.8162    5.5021 C   0  0  0  0  0  0  0  0  0  0  0  0
   -5.9546   24.7446    1.4746 C   0  0  0  0  0  0  0  0  0  0  0  0
   -6.1589   25.3787    0.2407 C   0  0  0  0  0  0  0  0  0  0  0  0
   -7.0394   24.8389   -0.6961 C   0  0  0  0  0  0  0  0  0  0  0  0
   -7.6995   23.6657   -0.3775 C   0  0  0  0  0  0  0  0  0  0  0  0
   -7.5391   23.0133    0.7917 N   0  0  0  0  0  0  0  0  0  0  0  0
   -6.6803   23.5691    1.6825 C   0  0  0  0  0  0  0  0  0  0  0  0
   -6.6771   29.9701    7.4394 C   0  0  0  0  0  0  0  0  0  0  0  0
   -5.6652   30.8879    8.1319 C   0  0  0  0  0  0  0  0  0  0  0  0
   -4.8390   30.1399    9.0264 O   0  0  0  0  0  0  0  0  0  0  0  0
   -1.2635   29.7251    8.5017 C   0  0  0  0  0  0  0  0  0  0  0  0
   -0.7328   30.8662    9.1006 C   0  0  0  0  0  0  0  0  0  0  0  0
   -1.5852   31.7979    9.6995 C   0  0  0  0  0  0  0  0  0  0  0  0
   -2.9689   31.5977    9.7002 C   0  0  0  0  0  0  0  0  0  0  0  0
   -3.5102   30.4637    9.0977 C   0  0  0  0  0  0  0  0  0  0  0  0
   -2.6499   29.5307    8.5105 C   0  0  0  0  0  0  0  0  0  0  0  0
    0.4447   29.1422    6.9536 C   0  0  0  0  0  0  0  0  0  0  0  0
   -0.5481   28.7341    7.8859 O   0  0  0  0  0  0  0  0  0  0  0  0
 29 30  1  0  0  0
 30 23  1  0  0  0
 23 24  1  0  0  0
 24 25  2  0  0  0
 25 26  1  0  0  0
 26 27  2  0  0  0
 27 22  1  0  0  0
 22 21  1  0  0  0
 21 20  1  0  0  0
 20  1  1  0  0  0
  1  2  1  0  0  0
  2  3  2  0  0  0
  2  4  1  0  0  0
  4  7  1  0  0  0
  7  8  1  0  0  0
  8  9  2  0  0  0
  9 14  1  0  0  0
 14 15  1  0  0  0
 15 16  2  0  0  0
 16 17  1  0  0  0
 17 18  2  0  0  0
 18 19  1  0  0  0
  9 10  1  0  0  0
 10 11  2  0  0  0
 11 12  1  0  0  0
 12 13  1  0  0  0
 27 28  1  0  0  0
 28 23  2  0  0  0
 12  7  2  0  0  0
 19 14  2  0  0  0
  1  5  1  0  0  0
  4  6  1  0  0  0
M  END
> <minimizedAffinity>
-9.86386

$$$$
OCNT-2315259


 23 25  0  0  0  0  0  0  0  0999 V2000
   -5.6949   29.8748    6.5869 C   0  0  0  0  0  0  0  0  0  0  0  0
   -5.4765   29.6036    7.8829 N   0  0  0  0  0  0  0  0  0  0  0  0
   -4.2860   30.2782    8.1558 O   0  0  0  0  0  0  0  0  0  0  0  0
   -3.8996   30.8709    6.9884 C   0  0  0  0  0  0  0  0  0  0  0  0
   -4.7253   30.6464    5.9898 N   0  0  0  0  0  0  0  0  0  0  0  0
   -6.8597   29.3310    5.8429 C   0  0  0  0  0  0  0  0  0  0  0  0
   -6.1948   29.7155    2.9106 C   0  0  0  0  0  0  0  0  0  0  0  0
   -6.0243   28.3890    3.6011 C   0  0  0  0  0  0  0  0  0  0  0  0
   -5.5360   27.2997    2.8575 C   0  0  0  0  0  0  0  0  0  0  0  0
   -5.3570   26.0530    3.4545 C   0  0  0  0  0  0  0  0  0  0  0  0
   -4.7601   24.7357    2.5217 Cl  0  0  0  0  0  0  0  0  0  0  0  0
   -5.6573   25.8676    4.7980 C   0  0  0  0  0  0  0  0  0  0  0  0
   -6.1397   26.9388    5.5501 C   0  0  0  0  0  0  0  0  0  0  0  0
   -6.3300   28.2100    4.9697 C   0  0  0  0  0  0  0  0  0  0  0  0
   -2.6506   31.6695    7.0260 C   0  0  0  0  0  0  0  0  0  0  0  0
   -1.4439   30.8547    7.4311 C   0  0  0  0  0  0  0  0  0  0  0  0
   -1.0009   30.8484    8.7622 C   0  0  0  0  0  0  0  0  0  0  0  0
    0.1058   30.0835    9.1336 C   0  0  0  0  0  0  0  0  0  0  0  0
    0.7677   29.3193    8.1805 C   0  0  0  0  0  0  0  0  0  0  0  0
    1.8430   28.5872    8.5887 O   0  0  0  0  0  0  0  0  0  0  0  0
    0.3404   29.3038    6.8572 C   0  0  0  0  0  0  0  0  0  0  0  0
   -0.7665   30.0696    6.4841 C   0  0  0  0  0  0  0  0  0  0  0  0
    2.1922   28.0987    7.8257 H   0  0  0  0  0  0  0  0  0  0  0  0
  7  8  1  0  0  0
  8  9  1  0  0  0
  9 10  2  0  0  0
 10 11  1  0  0  0
 10 12  1  0  0  0
 12 13  2  0  0  0
 13 14  1  0  0  0
 14  6  1  0  0  0
  6  1  1  0  0  0
  1  2  2  0  0  0
  2  3  1  0  0  0
  3  4  1  0  0  0
  4 15  1  0  0  0
 15 16  1  0  0  0
 16 17  1  0  0  0
 17 18  2  0  0  0
 18 19  1  0  0  0
 19 20  1  0  0  0
 19 21  2  0  0  0
 21 22  1  0  0  0
  4  5  2  0  0  0
 14  8  2  0  0  0
  5  1  1  0  0  0
 22 16  2  0  0  0
 20 23  1  0  0  0
M  END
> <minimizedAffinity>
-9.21642

$$$$
OCNT-2315261


 28 30  0  0  0  0  0  0  0  0999 V2000
   -5.4179   26.8535    4.1395 C   0  0  0  0  0  0  0  0  0  0  0  0
   -5.2952   26.5575    2.7980 C   0  0  0  0  0  0  0  0  0  0  0  0
   -5.6846   25.2964    2.3833 C   0  0  0  0  0  0  0  0  0  0  0  0
   -6.1824   24.3849    3.2538 N   0  0  0  0  0  0  0  0  0  0  0  0
   -6.2867   24.7578    4.5404 C   0  0  0  0  0  0  0  0  0  0  0  0
   -5.9230   25.9659    5.0071 N   0  0  0  0  0  0  0  0  0  0  0  0
   -6.8316   23.7853    5.4960 C   0  0  0  0  0  0  0  0  0  0  0  0
   -6.0263   22.8549    6.1729 C   0  0  0  0  0  0  0  0  0  0  0  0
   -6.5849   21.9479    7.0739 C   0  0  0  0  0  0  0  0  0  0  0  0
   -7.9510   21.9890    7.2830 C   0  0  0  0  0  0  0  0  0  0  0  0
   -8.7724   22.8587    6.6622 N   0  0  0  0  0  0  0  0  0  0  0  0
   -8.1945   23.7272    5.7910 C   0  0  0  0  0  0  0  0  0  0  0  0
   -5.5745   24.9457    0.9101 C   0  0  0  0  0  0  0  0  0  0  0  0
   -6.3284   25.7657    0.1228 F   0  0  0  0  0  0  0  0  0  0  0  0
   -5.9615   23.6751    0.6075 F   0  0  0  0  0  0  0  0  0  0  0  0
   -4.2971   25.0645    0.4421 F   0  0  0  0  0  0  0  0  0  0  0  0
   -5.0640   28.1430    4.5648 N   0  0  0  0  0  0  0  0  0  0  0  0
   -4.1854   28.4238    4.1369 H   0  0  0  0  0  0  0  0  0  0  0  0
   -4.9980   28.3164    6.0126 C   0  0  0  0  0  0  0  0  0  0  0  0
   -1.6408   29.3483    7.0621 C   0  0  0  0  0  0  0  0  0  0  0  0
   -2.1911   30.5417    7.0201 N   0  0  0  0  0  0  0  0  0  0  0  0
   -3.4910   30.3464    6.6435 C   0  0  0  0  0  0  0  0  0  0  0  0
   -3.7499   29.0110    6.4265 C   0  0  0  0  0  0  0  0  0  0  0  0
   -2.5436   28.3858    6.6617 N   0  0  0  0  0  0  0  0  0  0  0  0
   -2.2669   26.9817    6.4703 C   0  0  0  0  0  0  0  0  0  0  0  0
    0.0746   29.5596    8.7022 C   0  0  0  0  0  0  0  0  0  0  0  0
   -0.3554   29.0407    7.3999 N   0  0  0  0  0  0  0  0  0  0  0  0
    0.6165   29.3253    6.3372 C   0  0  0  0  0  0  0  0  0  0  0  0
 26 27  1  0  0  0
 27 28  1  0  0  0
 27 20  1  0  0  0
 20 21  2  0  0  0
 21 22  1  0  0  0
 22 23  2  0  0  0
 23 19  1  0  0  0
 19 17  1  0  0  0
 17  1  1  0  0  0
  1  2  2  0  0  0
  2  3  1  0  0  0
  3 13  1  0  0  0
 13 14  1  0  0  0
 13 15  1  0  0  0
 13 16  1  0  0  0
  3  4  2  0  0  0
  4  5  1  0  0  0
  5  7  1  0  0  0
  7  8  1  0  0  0
  8  9  2  0  0  0
  9 10  1  0  0  0
 10 11  2  0  0  0
 11 12  1  0  0  0
  5  6  2  0  0  0
 23 24  1  0  0  0
 24 25  1  0  0  0
 24 20  1  0  0  0
  6  1  1  0  0  0
 12  7  2  0  0  0
 17 18  1  0  0  0
M  END
> <minimizedAffinity>
-8.87336

$$$$
OCNT-2315271


 24 26  0  0  0  0  0  0  0  0999 V2000
   -6.3069   28.5512    6.1511 C   0  0  0  0  0  0  0  0  0  0  0  0
   -7.2751   28.4269    6.8912 O   0  0  0  0  0  0  0  0  0  0  0  0
   -5.3732   29.5585    6.2821 N   0  0  0  0  0  0  0  0  0  0  0  0
   -4.7376   29.7431    5.5181 H   0  0  0  0  0  0  0  0  0  0  0  0
   -5.9017   25.3781    4.0960 C   0  0  0  0  0  0  0  0  0  0  0  0
   -6.0935   26.2274    5.1909 C   0  0  0  0  0  0  0  0  0  0  0  0
   -6.1095   27.6178    5.0100 C   0  0  0  0  0  0  0  0  0  0  0  0
   -5.9617   28.1589    3.7306 C   0  0  0  0  0  0  0  0  0  0  0  0
   -5.7651   27.3169    2.6374 C   0  0  0  0  0  0  0  0  0  0  0  0
   -5.7250   25.9256    2.8108 C   0  0  0  0  0  0  0  0  0  0  0  0
   -5.5168   25.0335    1.6171 C   0  0  0  0  0  0  0  0  0  0  0  0
   -6.1658   23.4045    5.4162 C   0  0  0  0  0  0  0  0  0  0  0  0
   -5.8679   24.0092    4.1647 O   0  0  0  0  0  0  0  0  0  0  0  0
   -5.5222   30.5888    7.2964 C   0  0  0  0  0  0  0  0  0  0  0  0
   -4.2829   30.6995    8.2069 C   0  0  0  0  0  0  0  0  0  0  0  0
   -3.3887   31.8076    7.8197 N   0  0  0  0  0  0  0  0  0  0  0  0
   -2.6485   32.3508    8.9854 C   0  0  0  0  0  0  0  0  0  0  0  0
   -1.6454   31.3788    9.6467 C   0  0  0  0  0  0  0  0  0  0  0  0
   -0.9099   30.6304    8.5843 C   0  0  0  0  0  0  0  0  0  0  0  0
   -1.2868   30.6210    7.2555 C   0  0  0  0  0  0  0  0  0  0  0  0
   -0.4230   29.7802    6.4879 C   0  0  0  0  0  0  0  0  0  0  0  0
    0.5590   29.1974    7.2612 C   0  0  0  0  0  0  0  0  0  0  0  0
    0.4445   29.6601    8.9059 S   0  0  0  0  0  0  0  0  0  0  0  0
   -2.4464   31.4271    6.7380 C   0  0  0  0  0  0  0  0  0  0  0  0
 12 13  1  0  0  0
 13  5  1  0  0  0
  5  6  1  0  0  0
  6  7  2  0  0  0
  7  1  1  0  0  0
  1  2  2  0  0  0
  1  3  1  0  0  0
  3 14  1  0  0  0
 14 15  1  0  0  0
 15 16  1  0  0  0
 16 17  1  0  0  0
 17 18  1  0  0  0
 18 19  1  0  0  0
 19 20  2  0  0  0
 20 21  1  0  0  0
 21 22  2  0  0  0
 22 23  1  0  0  0
 20 24  1  0  0  0
  7  8  1  0  0  0
  8  9  2  0  0  0
  9 10  1  0  0  0
 10 11  1  0  0  0
 10  5  2  0  0  0
 24 16  1  0  0  0
 23 19  1  0  0  0
  3  4  1  0  0  0
M  END
> <minimizedAffinity>
-8.61235

$$$$
OCNT-2315273


 33 37  0  0  0  0  0  0  0  0999 V2000
   -6.1973   24.7358    2.2854 C   0  0  0  0  0  0  0  0  0  0  0  0
   -5.4807   25.2758    1.4477 O   0  0  0  0  0  0  0  0  0  0  0  0
   -6.2195   25.0266    3.6428 N   0  0  0  0  0  0  0  0  0  0  0  0
   -6.7978   24.4372    4.2299 H   0  0  0  0  0  0  0  0  0  0  0  0
   -6.7806   22.2823    2.0503 N   0  0  0  0  0  0  0  0  0  0  0  0
   -6.2595   21.7964    0.8574 C   0  0  0  0  0  0  0  0  0  0  0  0
   -5.6391   20.7569    0.7027 O   0  0  0  0  0  0  0  0  0  0  0  0
   -6.5591   22.7970   -0.2311 C   0  0  0  0  0  0  0  0  0  0  0  0
   -7.5712   23.7358    0.4198 C   0  0  0  0  0  0  0  0  0  0  0  0
   -7.2358   23.6533    1.9050 C   0  0  0  0  0  0  0  0  0  0  0  0
   -6.3544   21.7256    3.3234 C   0  0  0  0  0  0  0  0  0  0  0  0
  -10.6191   21.6821    7.2889 C   0  0  0  0  0  0  0  0  0  0  0  0
   -9.5301   21.7232    6.2576 C   0  0  0  0  0  0  0  0  0  0  0  0
   -9.7597   21.2499    4.9608 C   0  0  0  0  0  0  0  0  0  0  0  0
   -8.7331   21.2496    4.0149 C   0  0  0  0  0  0  0  0  0  0  0  0
   -7.4539   21.7093    4.3534 C   0  0  0  0  0  0  0  0  0  0  0  0
   -7.2231   22.1758    5.6538 C   0  0  0  0  0  0  0  0  0  0  0  0
   -8.2513   22.1768    6.5990 C   0  0  0  0  0  0  0  0  0  0  0  0
   -5.5020   26.0439    4.3067 C   0  0  0  0  0  0  0  0  0  0  0  0
   -6.0101   27.2909    4.6320 C   0  0  0  0  0  0  0  0  0  0  0  0
   -5.2117   28.2046    5.3311 C   0  0  0  0  0  0  0  0  0  0  0  0
   -3.9054   27.8764    5.6965 C   0  0  0  0  0  0  0  0  0  0  0  0
   -3.4070   26.6605    5.3875 N   0  0  0  0  0  0  0  0  0  0  0  0
   -4.1952   25.7908    4.7080 C   0  0  0  0  0  0  0  0  0  0  0  0
   -3.1298   28.7670    6.4478 N   0  0  0  0  0  0  0  0  0  0  0  0
   -1.7556   28.3252    6.7775 C   0  0  0  0  0  0  0  0  0  0  0  0
   -0.8930   29.5173    7.2499 C   0  0  0  0  0  0  0  0  0  0  0  0
   -1.6299   30.3053    8.2899 C   0  0  0  0  0  0  0  0  0  0  0  0
   -3.0008   30.2632    8.4512 C   0  0  0  0  0  0  0  0  0  0  0  0
   -3.4253   31.1328    9.5006 C   0  0  0  0  0  0  0  0  0  0  0  0
   -2.3653   31.7990   10.0794 C   0  0  0  0  0  0  0  0  0  0  0  0
   -0.8675   31.3786    9.3596 S   0  0  0  0  0  0  0  0  0  0  0  0
   -3.8557   29.3617    7.5964 C   0  0  0  0  0  0  0  0  0  0  0  0
 12 13  1  0  0  0
 13 14  1  0  0  0
 14 15  2  0  0  0
 15 16  1  0  0  0
 16 11  1  0  0  0
 11  5  1  0  0  0
  5  6  1  0  0  0
  6  7  2  0  0  0
  6  8  1  0  0  0
  8  9  1  0  0  0
  9 10  1  0  0  0
 10  1  1  0  0  0
  1  2  2  0  0  0
  1  3  1  0  0  0
  3 19  1  0  0  0
 19 20  2  0  0  0
 20 21  1  0  0  0
 21 22  2  0  0  0
 22 25  1  0  0  0
 25 26  1  0  0  0
 26 27  1  0  0  0
 27 28  1  0  0  0
 28 29  2  0  0  0
 29 30  1  0  0  0
 30 31  2  0  0  0
 31 32  1  0  0  0
 29 33  1  0  0  0
 22 23  1  0  0  0
 23 24  2  0  0  0
 16 17  2  0  0  0
 17 18  1  0  0  0
 18 13  2  0  0  0
 10  5  1  0  0  0
 24 19  1  0  0  0
 33 25  1  0  0  0
 32 28  1  0  0  0
  3  4  1  0  0  0
M  END
> <minimizedAffinity>
-10.48893

$$$$
OCNT-2315284


 24 26  0  0  0  0  0  0  0  0999 V2000
   -3.7887   26.8079    5.1641 C   0  0  0  0  0  0  0  0  0  0  0  0
   -5.0213   27.3355    5.5751 C   0  0  0  0  0  0  0  0  0  0  0  0
   -6.2332   26.8697    5.1751 N   0  0  0  0  0  0  0  0  0  0  0  0
   -6.1740   25.8345    4.3108 C   0  0  0  0  0  0  0  0  0  0  0  0
   -4.9730   25.3005    3.8741 C   0  0  0  0  0  0  0  0  0  0  0  0
   -3.7769   25.7780    4.2858 N   0  0  0  0  0  0  0  0  0  0  0  0
   -1.5825   27.7843    8.5451 O   0  0  0  0  0  0  0  0  0  0  0  0
   -1.2345   28.3599    7.2609 C   0  0  0  0  0  0  0  0  0  0  0  0
   -0.4264   27.3155    6.4881 C   0  0  0  0  0  0  0  0  0  0  0  0
   -1.5145   26.3979    5.9362 C   0  0  0  0  0  0  0  0  0  0  0  0
   -2.5790   27.3304    5.5820 N   0  0  0  0  0  0  0  0  0  0  0  0
   -2.5082   28.5409    6.4126 C   0  0  0  0  0  0  0  0  0  0  0  0
   -0.7889   27.8201    9.1122 H   0  0  0  0  0  0  0  0  0  0  0  0
   -0.4971   29.6875    7.4115 C   0  0  0  0  0  0  0  0  0  0  0  0
   -0.2377   29.9299    8.7196 F   0  0  0  0  0  0  0  0  0  0  0  0
    0.6804   29.6999    6.7525 F   0  0  0  0  0  0  0  0  0  0  0  0
   -1.2369   30.7198    6.9497 F   0  0  0  0  0  0  0  0  0  0  0  0
   -5.0377   24.2510    2.9814 O   0  0  0  0  0  0  0  0  0  0  0  0
   -6.0755   24.3523    1.9972 C   0  0  0  0  0  0  0  0  0  0  0  0
   -6.6297   22.9581    1.6537 C   0  0  0  0  0  0  0  0  0  0  0  0
   -7.1402   22.8315    0.2165 C   0  0  0  0  0  0  0  0  0  0  0  0
   -7.6117   24.1669   -0.3413 C   0  0  0  0  0  0  0  0  0  0  0  0
   -6.4861   25.2022   -0.3587 C   0  0  0  0  0  0  0  0  0  0  0  0
   -5.4587   25.0008    0.7551 C   0  0  0  0  0  0  0  0  0  0  0  0
  7  8  1  0  0  0
  8 14  1  0  0  0
 14 15  1  0  0  0
 14 16  1  0  0  0
 14 17  1  0  0  0
  8  9  1  0  0  0
  9 10  1  0  0  0
 10 11  1  0  0  0
 11  1  1  0  0  0
  1  2  2  0  0  0
  2  3  1  0  0  0
  3  4  2  0  0  0
  4  5  1  0  0  0
  5 18  1  0  0  0
 18 19  1  0  0  0
 19 20  1  0  0  0
 20 21  1  0  0  0
 21 22  1  0  0  0
 22 23  1  0  0  0
 23 24  1  0  0  0
  5  6  2  0  0  0
 11 12  1  0  0  0
 12  8  1  0  0  0
  6  1  1  0  0  0
 24 19  1  0  0  0
  7 13  1  0  0  0
M  END
> <minimizedAffinity>
-9.06820

$$$$
OCNT-2315285


 22 24  0  0  0  0  0  0  0  0999 V2000
   -2.7247   29.3336    7.4263 N   0  0  0  0  0  0  0  0  0  0  0  0
   -2.4514   27.9909    7.2353 C   0  0  0  0  0  0  0  0  0  0  0  0
   -1.8145   27.3463    8.0649 O   0  0  0  0  0  0  0  0  0  0  0  0
   -3.4614   29.7427    6.8693 H   0  0  0  0  0  0  0  0  0  0  0  0
   -3.0029   27.4195    6.0186 C   0  0  0  0  0  0  0  0  0  0  0  0
   -2.4824   26.6042    5.0144 C   0  0  0  0  0  0  0  0  0  0  0  0
   -1.1218   26.0120    4.9303 C   0  0  0  0  0  0  0  0  0  0  0  0
   -3.5423   26.4134    4.0698 C   0  0  0  0  0  0  0  0  0  0  0  0
   -3.6925   25.7239    2.8503 C   0  0  0  0  0  0  0  0  0  0  0  0
   -4.9366   25.7688    2.2054 C   0  0  0  0  0  0  0  0  0  0  0  0
   -5.1564   24.8507    0.5642 Br  0  0  0  0  0  0  0  0  0  0  0  0
   -6.0148   26.4727    2.7455 C   0  0  0  0  0  0  0  0  0  0  0  0
   -5.8838   27.1597    3.9567 C   0  0  0  0  0  0  0  0  0  0  0  0
   -4.6367   27.0998    4.5749 C   0  0  0  0  0  0  0  0  0  0  0  0
   -4.3167   27.6964    5.7485 O   0  0  0  0  0  0  0  0  0  0  0  0
   -0.9584   30.7121    8.5697 C   0  0  0  0  0  0  0  0  0  0  0  0
   -1.0185   31.8382    9.4687 O   0  0  0  0  0  0  0  0  0  0  0  0
   -2.3655   31.9655    9.9445 C   0  0  0  0  0  0  0  0  0  0  0  0
   -3.2365   31.1779    8.9931 C   0  0  0  0  0  0  0  0  0  0  0  0
   -2.3288   30.0140    8.6489 C   0  0  0  0  0  0  0  0  0  0  0  0
    1.0368   29.2017    8.0660 C   0  0  0  0  0  0  0  0  0  0  0  0
    0.2688   29.9125    8.9032 C   0  0  0  0  0  0  0  0  0  0  0  0
 21 22  2  0  0  0
 22 16  1  0  0  0
 16 17  1  0  0  0
 17 18  1  0  0  0
 18 19  1  0  0  0
 19 20  1  0  0  0
 20  1  1  0  0  0
  1  2  1  0  0  0
  2  3  2  0  0  0
  2  5  1  0  0  0
  5  6  2  0  0  0
  6  7  1  0  0  0
  6  8  1  0  0  0
  8  9  2  0  0  0
  9 10  1  0  0  0
 10 11  1  0  0  0
 10 12  2  0  0  0
 12 13  1  0  0  0
 13 14  2  0  0  0
 14 15  1  0  0  0
 20 16  1  0  0  0
 15  5  1  0  0  0
 14  8  1  0  0  0
  1  4  1  0  0  0
M  END
> <minimizedAffinity>
-8.60869

$$$$
OCNT-2315318


 24 25  0  0  0  0  0  0  0  0999 V2000
   -2.6317   26.9550    5.7692 C   0  0  0  0  0  0  0  0  0  0  0  0
   -2.2137   26.3247    6.7320 O   0  0  0  0  0  0  0  0  0  0  0  0
   -3.0377   28.2796    5.7690 N   0  0  0  0  0  0  0  0  0  0  0  0
   -3.5949   28.5772    4.9761 H   0  0  0  0  0  0  0  0  0  0  0  0
   -3.0029   29.1431    6.8544 C   0  0  0  0  0  0  0  0  0  0  0  0
   -1.8685   29.7794    7.3377 C   0  0  0  0  0  0  0  0  0  0  0  0
   -0.4794   29.6833    6.8172 C   0  0  0  0  0  0  0  0  0  0  0  0
   -2.3222   30.5959    8.4182 C   0  0  0  0  0  0  0  0  0  0  0  0
   -3.6398   30.4304    8.6198 N   0  0  0  0  0  0  0  0  0  0  0  0
   -4.0252   29.5205    7.6979 N   0  0  0  0  0  0  0  0  0  0  0  0
   -5.3567   28.9774    7.8417 C   0  0  0  0  0  0  0  0  0  0  0  0
   -1.4829   31.5264    9.2570 C   0  0  0  0  0  0  0  0  0  0  0  0
   -2.0803   31.7988   10.4514 F   0  0  0  0  0  0  0  0  0  0  0  0
   -1.3060   32.7290    8.6413 F   0  0  0  0  0  0  0  0  0  0  0  0
   -0.2431   31.0501    9.5443 F   0  0  0  0  0  0  0  0  0  0  0  0
   -2.8186   26.3251    4.3934 C   0  0  0  0  0  0  0  0  0  0  0  0
   -5.8797   26.5374    3.3451 C   0  0  0  0  0  0  0  0  0  0  0  0
   -5.7979   25.6537    2.0956 C   0  0  0  0  0  0  0  0  0  0  0  0
   -4.3845   25.1318    1.8463 C   0  0  0  0  0  0  0  0  0  0  0  0
   -3.8364   24.3919    3.0651 C   0  0  0  0  0  0  0  0  0  0  0  0
   -3.8953   25.2234    4.3584 C   0  0  0  0  0  0  0  0  0  0  0  0
   -5.3138   25.7945    4.5634 C   0  0  0  0  0  0  0  0  0  0  0  0
   -5.9386   28.9230    3.3102 C   0  0  0  0  0  0  0  0  0  0  0  0
   -5.1406   27.7530    3.1836 O   0  0  0  0  0  0  0  0  0  0  0  0
 23 24  1  0  0  0
 24 17  1  0  0  0
 17 18  1  0  0  0
 18 19  1  0  0  0
 19 20  1  0  0  0
 20 21  1  0  0  0
 21 16  1  0  0  0
 16  1  1  0  0  0
  1  2  2  0  0  0
  1  3  1  0  0  0
  3  5  1  0  0  0
  5  6  2  0  0  0
  6  7  1  0  0  0
  6  8  1  0  0  0
  8 12  1  0  0  0
 12 13  1  0  0  0
 12 14  1  0  0  0
 12 15  1  0  0  0
  8  9  2  0  0  0
  9 10  1  0  0  0
 10 11  1  0  0  0
 21 22  1  0  0  0
 22 17  1  0  0  0
 10  5  1  0  0  0
  3  4  1  0  0  0
M  END
> <minimizedAffinity>
-8.31710

$$$$
OCNT-2315321


 24 25  0  0  0  0  0  0  0  0999 V2000
   -1.8035   27.5453    7.3796 C   0  0  0  0  0  0  0  0  0  0  0  0
   -2.8023   28.1942    6.4207 C   0  0  0  0  0  0  0  0  0  0  0  0
   -3.5714   27.0792    5.6708 C   0  0  0  0  0  0  0  0  0  0  0  0
   -4.6797   27.5829    4.8538 N   0  0  0  0  0  0  0  0  0  0  0  0
   -5.1498   26.9774    3.6832 C   0  0  0  0  0  0  0  0  0  0  0  0
   -6.0879   27.4871    3.0576 O   0  0  0  0  0  0  0  0  0  0  0  0
   -5.3743   28.7658    5.3620 C   0  0  0  0  0  0  0  0  0  0  0  0
   -5.1649   28.9568    6.8678 C   0  0  0  0  0  0  0  0  0  0  0  0
   -3.7132   29.1058    7.2121 N   0  0  0  0  0  0  0  0  0  0  0  0
   -3.1698   30.7241    7.3369 S   0  0  0  0  0  0  0  0  0  0  0  0
   -2.5402   30.7479    9.0027 C   0  0  0  0  0  0  0  0  0  0  0  0
   -4.3284   31.5866    7.2634 O   0  0  0  0  0  0  0  0  0  0  0  0
   -2.0435   30.9018    6.4471 O   0  0  0  0  0  0  0  0  0  0  0  0
   -4.4506   25.6594    3.2049 C   0  0  0  0  0  0  0  0  0  0  0  0
   -3.7893   25.0722    4.2597 F   0  0  0  0  0  0  0  0  0  0  0  0
   -3.4365   25.9687    2.3306 F   0  0  0  0  0  0  0  0  0  0  0  0
   -5.4427   24.7077    2.5965 C   0  0  0  0  0  0  0  0  0  0  0  0
   -5.4855   24.5126    1.2178 C   0  0  0  0  0  0  0  0  0  0  0  0
   -4.6449   25.1860    0.4205 F   0  0  0  0  0  0  0  0  0  0  0  0
   -6.3818   23.6167    0.6363 C   0  0  0  0  0  0  0  0  0  0  0  0
   -7.2517   22.8861    1.4433 C   0  0  0  0  0  0  0  0  0  0  0  0
   -7.2102   23.0553    2.8262 C   0  0  0  0  0  0  0  0  0  0  0  0
   -6.3064   23.9562    3.3889 C   0  0  0  0  0  0  0  0  0  0  0  0
   -6.2783   24.0820    4.7222 F   0  0  0  0  0  0  0  0  0  0  0  0
  1  2  1  0  0  0
  2  3  1  0  0  0
  3  4  1  0  0  0
  4  5  1  0  0  0
  5  6  2  0  0  0
  5 14  1  0  0  0
 14 15  1  0  0  0
 14 16  1  0  0  0
 14 17  1  0  0  0
 17 18  2  0  0  0
 18 19  1  0  0  0
 18 20  1  0  0  0
 20 21  2  0  0  0
 21 22  1  0  0  0
 22 23  2  0  0  0
 23 24  1  0  0  0
  4  7  1  0  0  0
  7  8  1  0  0  0
  8  9  1  0  0  0
  9 10  1  0  0  0
 10 11  1  0  0  0
 10 12  2  0  0  0
 10 13  2  0  0  0
  9  2  1  0  0  0
 23 17  1  0  0  0
M  END
> <minimizedAffinity>
-8.44100

$$$$
OCNT-2315324


 31 33  0  0  0  0  0  0  0  0999 V2000
   -5.6237   28.6390    7.8010 N   0  0  0  0  0  0  0  0  0  0  0  0
   -5.7921   28.5691    6.4466 C   0  0  0  0  0  0  0  0  0  0  0  0
   -5.6460   29.5165    5.6868 O   0  0  0  0  0  0  0  0  0  0  0  0
   -6.1154   27.2984    6.0491 N   0  0  0  0  0  0  0  0  0  0  0  0
   -6.0510   27.9110    8.3529 H   0  0  0  0  0  0  0  0  0  0  0  0
   -5.7976   26.5672    6.6712 H   0  0  0  0  0  0  0  0  0  0  0  0
   -5.2925   29.8888    8.4655 C   0  0  0  0  0  0  0  0  0  0  0  0
   -0.9859   30.1767    8.9518 C   0  0  0  0  0  0  0  0  0  0  0  0
   -1.8286   31.1568    9.4721 C   0  0  0  0  0  0  0  0  0  0  0  0
   -3.2154   31.0483    9.3142 C   0  0  0  0  0  0  0  0  0  0  0  0
   -3.7852   29.9553    8.6420 C   0  0  0  0  0  0  0  0  0  0  0  0
   -2.9275   28.9822    8.1112 C   0  0  0  0  0  0  0  0  0  0  0  0
   -1.5432   29.0934    8.2706 C   0  0  0  0  0  0  0  0  0  0  0  0
    1.0542   29.1439    8.3041 C   0  0  0  0  0  0  0  0  0  0  0  0
    0.3789   30.1612    9.0328 O   0  0  0  0  0  0  0  0  0  0  0  0
   -6.0998   30.0508    9.7653 C   0  0  0  0  0  0  0  0  0  0  0  0
   -6.6676   28.7302   10.2704 C   0  0  0  0  0  0  0  0  0  0  0  0
   -5.6534   28.0053   10.9579 O   0  0  0  0  0  0  0  0  0  0  0  0
   -4.9508   27.8063   10.3146 H   0  0  0  0  0  0  0  0  0  0  0  0
   -6.1123   26.9499    4.6377 C   0  0  0  0  0  0  0  0  0  0  0  0
   -5.0937   25.8531    4.2953 C   0  0  0  0  0  0  0  0  0  0  0  0
   -5.4062   25.1612    2.9999 C   0  0  0  0  0  0  0  0  0  0  0  0
   -5.6844   25.7738    1.7930 C   0  0  0  0  0  0  0  0  0  0  0  0
   -5.9390   24.8011    0.8643 N   0  0  0  0  0  0  0  0  0  0  0  0
   -5.8433   23.5562    1.4398 C   0  0  0  0  0  0  0  0  0  0  0  0
   -6.0383   22.2871    0.8810 C   0  0  0  0  0  0  0  0  0  0  0  0
   -5.8708   21.1781    1.7155 C   0  0  0  0  0  0  0  0  0  0  0  0
   -5.5129   21.3342    3.0517 C   0  0  0  0  0  0  0  0  0  0  0  0
   -5.3135   22.6100    3.5910 C   0  0  0  0  0  0  0  0  0  0  0  0
   -5.4904   23.7476    2.7758 C   0  0  0  0  0  0  0  0  0  0  0  0
   -6.1711   24.9666   -0.1052 H   0  0  0  0  0  0  0  0  0  0  0  0
 14 15  1  0  0  0
 15  8  1  0  0  0
  8  9  1  0  0  0
  9 10  2  0  0  0
 10 11  1  0  0  0
 11  7  1  0  0  0
  7 16  1  0  0  0
 16 17  1  0  0  0
 17 18  1  0  0  0
  7  1  1  0  0  0
  1  2  1  0  0  0
  2  3  2  0  0  0
  2  4  1  0  0  0
  4 20  1  0  0  0
 20 21  1  0  0  0
 21 22  1  0  0  0
 22 23  2  0  0  0
 23 24  1  0  0  0
 24 25  1  0  0  0
 25 26  2  0  0  0
 26 27  1  0  0  0
 27 28  2  0  0  0
 28 29  1  0  0  0
 29 30  2  0  0  0
 11 12  2  0  0  0
 12 13  1  0  0  0
 13  8  2  0  0  0
 30 22  1  0  0  0
 30 25  1  0  0  0
 18 19  1  0  0  0
  1  5  1  0  0  0
  4  6  1  0  0  0
 24 31  1  0  0  0
M  END
> <minimizedAffinity>
-9.70634

$$$$
OCNT-2315347


 27 30  0  0  0  0  0  0  0  0999 V2000
   -6.0158   28.4404    8.0838 N   0  0  0  0  0  0  0  0  0  0  0  0
   -5.4105   27.7215    7.6861 H   0  0  0  0  0  0  0  0  0  0  0  0
   -6.2233   31.4525    9.6150 O   0  0  0  0  0  0  0  0  0  0  0  0
   -5.7044   30.9773    8.3707 C   0  0  0  0  0  0  0  0  0  0  0  0
   -4.5045   31.8403    7.9697 C   0  0  0  0  0  0  0  0  0  0  0  0
   -3.2747   31.0157    8.3655 C   0  0  0  0  0  0  0  0  0  0  0  0
   -3.7134   29.5905    8.0172 C   0  0  0  0  0  0  0  0  0  0  0  0
   -5.1517   29.5372    8.5471 C   0  0  0  0  0  0  0  0  0  0  0  0
   -6.7459   32.2482    9.4160 H   0  0  0  0  0  0  0  0  0  0  0  0
   -2.0146   31.4782    7.6375 C   0  0  0  0  0  0  0  0  0  0  0  0
   -0.9046   30.5568    7.7916 N   0  0  0  0  0  0  0  0  0  0  0  0
   -0.3313   29.7961    6.8136 C   0  0  0  0  0  0  0  0  0  0  0  0
    0.6712   29.0826    7.4272 C   0  0  0  0  0  0  0  0  0  0  0  0
    0.6180   29.4806    8.7755 C   0  0  0  0  0  0  0  0  0  0  0  0
   -0.3434   30.3789    9.0031 N   0  0  0  0  0  0  0  0  0  0  0  0
   -7.0280   28.7588    7.0748 C   0  0  0  0  0  0  0  0  0  0  0  0
   -6.5920   28.5167    5.6503 C   0  0  0  0  0  0  0  0  0  0  0  0
   -6.4574   29.5835    4.7521 C   0  0  0  0  0  0  0  0  0  0  0  0
   -6.0544   29.3538    3.4373 C   0  0  0  0  0  0  0  0  0  0  0  0
   -5.7778   28.0559    3.0055 C   0  0  0  0  0  0  0  0  0  0  0  0
   -5.8982   26.9746    3.8903 C   0  0  0  0  0  0  0  0  0  0  0  0
   -6.2991   27.2117    5.2125 C   0  0  0  0  0  0  0  0  0  0  0  0
   -5.6166   25.6579    3.4292 N   0  0  0  0  0  0  0  0  0  0  0  0
   -5.5239   25.2109    2.1262 C   0  0  0  0  0  0  0  0  0  0  0  0
   -5.2359   23.8678    2.1745 C   0  0  0  0  0  0  0  0  0  0  0  0
   -5.1665   23.5740    3.5419 C   0  0  0  0  0  0  0  0  0  0  0  0
   -5.3904   24.6422    4.3068 N   0  0  0  0  0  0  0  0  0  0  0  0
  3  4  1  0  0  0
  4  5  1  0  0  0
  5  6  1  0  0  0
  6 10  1  0  0  0
 10 11  1  0  0  0
 11 12  1  0  0  0
 12 13  2  0  0  0
 13 14  1  0  0  0
 14 15  2  0  0  0
  6  7  1  0  0  0
  7  8  1  0  0  0
  8  1  1  0  0  0
  1 16  1  0  0  0
 16 17  1  0  0  0
 17 18  2  0  0  0
 18 19  1  0  0  0
 19 20  2  0  0  0
 20 21  1  0  0  0
 21 23  1  0  0  0
 23 24  1  0  0  0
 24 25  2  0  0  0
 25 26  1  0  0  0
 26 27  2  0  0  0
 21 22  2  0  0  0
  8  4  1  0  0  0
 22 17  1  0  0  0
 15 11  1  0  0  0
 27 23  1  0  0  0
  3  9  1  0  0  0
  1  2  1  0  0  0
M  END
> <minimizedAffinity>
-8.93569

$$$$
OCNT-2315349


 28 31  0  0  0  0  0  0  0  0999 V2000
   -7.5994   30.2076    6.3744 C   0  0  0  0  0  0  0  0  0  0  0  0
   -6.2526   29.4748    6.3790 C   0  0  0  0  0  0  0  0  0  0  0  0
   -6.0871   28.4784    5.2359 C   0  0  0  0  0  0  0  0  0  0  0  0
   -5.9670   28.9694    3.9258 C   0  0  0  0  0  0  0  0  0  0  0  0
   -5.8354   28.0980    2.8417 C   0  0  0  0  0  0  0  0  0  0  0  0
   -5.8226   26.7170    3.0370 C   0  0  0  0  0  0  0  0  0  0  0  0
   -5.9685   26.2150    4.3285 C   0  0  0  0  0  0  0  0  0  0  0  0
   -6.1025   27.0876    5.4173 C   0  0  0  0  0  0  0  0  0  0  0  0
   -5.6979   25.9791    1.8927 O   0  0  0  0  0  0  0  0  0  0  0  0
   -4.5918   25.0791    1.7845 C   0  0  0  0  0  0  0  0  0  0  0  0
   -4.9902   23.6293    1.8704 C   0  0  0  0  0  0  0  0  0  0  0  0
   -4.6391   22.8122    2.9486 C   0  0  0  0  0  0  0  0  0  0  0  0
   -5.0630   21.4869    2.9802 C   0  0  0  0  0  0  0  0  0  0  0  0
   -5.8390   21.0216    1.9325 C   0  0  0  0  0  0  0  0  0  0  0  0
   -6.2130   21.7815    0.8812 N   0  0  0  0  0  0  0  0  0  0  0  0
   -5.7867   23.0647    0.8785 C   0  0  0  0  0  0  0  0  0  0  0  0
   -5.1513   30.4235    6.2847 N   0  0  0  0  0  0  0  0  0  0  0  0
   -5.3858   31.3251    5.8917 H   0  0  0  0  0  0  0  0  0  0  0  0
   -4.2116   30.4687    7.3036 C   0  0  0  0  0  0  0  0  0  0  0  0
   -4.2348   31.4693    8.2183 N   0  0  0  0  0  0  0  0  0  0  0  0
   -3.3099   31.4783    9.1992 C   0  0  0  0  0  0  0  0  0  0  0  0
   -2.3152   30.6013    9.4127 N   0  0  0  0  0  0  0  0  0  0  0  0
   -2.3289   29.6260    8.4940 C   0  0  0  0  0  0  0  0  0  0  0  0
   -3.2153   29.4838    7.4377 C   0  0  0  0  0  0  0  0  0  0  0  0
   -2.8349   28.2962    6.7468 C   0  0  0  0  0  0  0  0  0  0  0  0
   -1.7389   27.7643    7.3948 C   0  0  0  0  0  0  0  0  0  0  0  0
   -1.4439   28.5836    8.4548 N   0  0  0  0  0  0  0  0  0  0  0  0
   -0.6970   28.4572    9.1223 H   0  0  0  0  0  0  0  0  0  0  0  0
  1  2  1  0  0  0
  2 17  1  0  0  0
 17 19  1  0  0  0
 19 20  1  0  0  0
 20 21  2  0  0  0
 21 22  1  0  0  0
 22 23  2  0  0  0
 23 24  1  0  0  0
 24 25  1  0  0  0
 25 26  2  0  0  0
 26 27  1  0  0  0
  2  3  1  0  0  0
  3  4  1  0  0  0
  4  5  2  0  0  0
  5  6  1  0  0  0
  6  9  1  0  0  0
  9 10  1  0  0  0
 10 11  1  0  0  0
 11 12  1  0  0  0
 12 13  2  0  0  0
 13 14  1  0  0  0
 14 15  2  0  0  0
 15 16  1  0  0  0
  6  7  2  0  0  0
  7  8  1  0  0  0
 24 19  2  0  0  0
  8  3  2  0  0  0
 27 23  1  0  0  0
 16 11  2  0  0  0
 17 18  1  0  0  0
 27 28  1  0  0  0
M  END
> <minimizedAffinity>
-9.40336

$$$$
OCNT-2315357


 24 26  0  0  0  0  0  0  0  0999 V2000
   -6.1832   28.7156    5.0900 C   0  0  0  0  0  0  0  0  0  0  0  0
   -5.9775   28.8507    3.7173 C   0  0  0  0  0  0  0  0  0  0  0  0
   -5.8349   27.7215    2.9001 C   0  0  0  0  0  0  0  0  0  0  0  0
   -5.8852   26.4346    3.4422 C   0  0  0  0  0  0  0  0  0  0  0  0
   -6.0914   26.3015    4.8198 C   0  0  0  0  0  0  0  0  0  0  0  0
   -6.2461   27.4298    5.6336 C   0  0  0  0  0  0  0  0  0  0  0  0
   -5.7250   25.2550    2.6002 C   0  0  0  0  0  0  0  0  0  0  0  0
   -5.0976   25.2575    1.4139 N   0  0  0  0  0  0  0  0  0  0  0  0
   -5.1821   23.9377    0.9842 O   0  0  0  0  0  0  0  0  0  0  0  0
   -5.8570   23.2516    1.9511 C   0  0  0  0  0  0  0  0  0  0  0  0
   -6.2162   24.0186    2.9637 N   0  0  0  0  0  0  0  0  0  0  0  0
   -6.0588   21.8055    1.6842 C   0  0  0  0  0  0  0  0  0  0  0  0
   -5.2585   21.0153    2.4480 F   0  0  0  0  0  0  0  0  0  0  0  0
   -5.7987   21.4749    0.3877 F   0  0  0  0  0  0  0  0  0  0  0  0
   -7.3385   21.4148    1.9293 F   0  0  0  0  0  0  0  0  0  0  0  0
   -4.5417   29.5028    7.4227 O   0  0  0  0  0  0  0  0  0  0  0  0
   -5.5195   30.1432    7.0440 C   0  0  0  0  0  0  0  0  0  0  0  0
   -6.3436   29.7982    5.9795 N   0  0  0  0  0  0  0  0  0  0  0  0
   -7.1681   30.3647    5.8340 H   0  0  0  0  0  0  0  0  0  0  0  0
   -5.9906   31.3995    7.7717 C   0  0  0  0  0  0  0  0  0  0  0  0
   -4.9318   31.7984    9.1953 S   0  0  0  0  0  0  0  0  0  0  0  0
   -4.2602   33.3342    8.7220 C   0  0  0  0  0  0  0  0  0  0  0  0
   -5.0518   34.2507    7.8303 C   0  0  0  0  0  0  0  0  0  0  0  0
   -4.8334   34.6150    9.2684 C   0  0  0  0  0  0  0  0  0  0  0  0
 16 17  2  0  0  0
 17 20  1  0  0  0
 20 21  1  0  0  0
 21 22  1  0  0  0
 22 23  1  0  0  0
 23 24  1  0  0  0
 17 18  1  0  0  0
 18  1  1  0  0  0
  1  2  1  0  0  0
  2  3  2  0  0  0
  3  4  1  0  0  0
  4  7  1  0  0  0
  7  8  2  0  0  0
  8  9  1  0  0  0
  9 10  1  0  0  0
 10 12  1  0  0  0
 12 13  1  0  0  0
 12 14  1  0  0  0
 12 15  1  0  0  0
 10 11  2  0  0  0
  4  5  2  0  0  0
  5  6  1  0  0  0
 24 22  1  0  0  0
  6  1  2  0  0  0
 11  7  1  0  0  0
 18 19  1  0  0  0
M  END
> <minimizedAffinity>
-8.75178

$$$$
OCNT-2315387


 27 29  0  0  0  0  0  0  0  0999 V2000
   -6.2970   29.2513    7.0125 C   0  0  0  0  0  0  0  0  0  0  0  0
   -6.1744   28.7473    5.5946 C   0  0  0  0  0  0  0  0  0  0  0  0
   -6.1778   29.6452    4.5195 C   0  0  0  0  0  0  0  0  0  0  0  0
   -6.0586   29.1801    3.2116 C   0  0  0  0  0  0  0  0  0  0  0  0
   -5.9311   27.8117    2.9649 C   0  0  0  0  0  0  0  0  0  0  0  0
   -5.9152   26.8847    4.0190 C   0  0  0  0  0  0  0  0  0  0  0  0
   -6.0354   27.3737    5.3320 C   0  0  0  0  0  0  0  0  0  0  0  0
   -5.7772   25.4426    3.7575 C   0  0  0  0  0  0  0  0  0  0  0  0
   -5.4890   24.9655    2.4693 C   0  0  0  0  0  0  0  0  0  0  0  0
   -5.3608   23.5955    2.2176 C   0  0  0  0  0  0  0  0  0  0  0  0
   -5.5060   22.6681    3.2534 C   0  0  0  0  0  0  0  0  0  0  0  0
   -5.4023   21.1971    2.9803 C   0  0  0  0  0  0  0  0  0  0  0  0
   -5.8057   23.1308    4.5382 C   0  0  0  0  0  0  0  0  0  0  0  0
   -5.9349   24.5012    4.7866 C   0  0  0  0  0  0  0  0  0  0  0  0
   -5.8433   30.6288    7.0878 N   0  0  0  0  0  0  0  0  0  0  0  0
   -6.5988   31.2896    7.2538 H   0  0  0  0  0  0  0  0  0  0  0  0
   -2.6303   31.0504    8.3799 N   0  0  0  0  0  0  0  0  0  0  0  0
   -3.8446   30.4257    8.4047 C   0  0  0  0  0  0  0  0  0  0  0  0
   -4.5773   30.9837    7.3895 C   0  0  0  0  0  0  0  0  0  0  0  0
   -3.7247   31.9480    6.8138 C   0  0  0  0  0  0  0  0  0  0  0  0
   -2.5283   31.9928    7.4123 N   0  0  0  0  0  0  0  0  0  0  0  0
   -1.4991   30.7914    9.2487 C   0  0  0  0  0  0  0  0  0  0  0  0
    0.4302   29.3219    6.3313 C   0  0  0  0  0  0  0  0  0  0  0  0
   -0.5875   29.9055    7.1655 N   0  0  0  0  0  0  0  0  0  0  0  0
   -0.3959   30.0517    8.5257 C   0  0  0  0  0  0  0  0  0  0  0  0
    0.5640   29.5711    9.1254 O   0  0  0  0  0  0  0  0  0  0  0  0
   -1.2439   30.5600    6.7352 H   0  0  0  0  0  0  0  0  0  0  0  0
 23 24  1  0  0  0
 24 25  1  0  0  0
 25 26  2  0  0  0
 25 22  1  0  0  0
 22 17  1  0  0  0
 17 18  1  0  0  0
 18 19  2  0  0  0
 19 15  1  0  0  0
 15  1  1  0  0  0
  1  2  1  0  0  0
  2  3  2  0  0  0
  3  4  1  0  0  0
  4  5  2  0  0  0
  5  6  1  0  0  0
  6  8  1  0  0  0
  8  9  1  0  0  0
  9 10  2  0  0  0
 10 11  1  0  0  0
 11 12  1  0  0  0
 11 13  2  0  0  0
 13 14  1  0  0  0
  6  7  2  0  0  0
 19 20  1  0  0  0
 20 21  2  0  0  0
 21 17  1  0  0  0
  7  2  1  0  0  0
 14  8  2  0  0  0
 24 27  1  0  0  0
 15 16  1  0  0  0
M  END
> <minimizedAffinity>
-9.44436

$$$$
OCNT-2315389


 23 25  0  0  0  0  0  0  0  0999 V2000
   -0.0142   27.3175    7.0013 N   0  0  0  0  0  0  0  0  0  0  0  0
    0.8142   26.7633    7.2168 H   0  0  0  0  0  0  0  0  0  0  0  0
   -0.9374   26.7908    6.0565 C   0  0  0  0  0  0  0  0  0  0  0  0
   -0.4623   26.3954    4.8063 C   0  0  0  0  0  0  0  0  0  0  0  0
   -1.3439   25.8795    3.8516 C   0  0  0  0  0  0  0  0  0  0  0  0
   -2.7094   25.7464    4.1469 C   0  0  0  0  0  0  0  0  0  0  0  0
   -3.1800   26.1303    5.4090 C   0  0  0  0  0  0  0  0  0  0  0  0
   -2.2909   26.6474    6.3586 C   0  0  0  0  0  0  0  0  0  0  0  0
   -3.5871   25.2212    3.1631 N   0  0  0  0  0  0  0  0  0  0  0  0
   -3.8011   23.9127    2.8012 C   0  0  0  0  0  0  0  0  0  0  0  0
   -4.7007   23.8387    1.8465 N   0  0  0  0  0  0  0  0  0  0  0  0
   -5.0243   25.1443    1.6413 C   0  0  0  0  0  0  0  0  0  0  0  0
   -4.3826   26.0237    2.4109 N   0  0  0  0  0  0  0  0  0  0  0  0
    1.0045   29.2721    8.3051 O   0  0  0  0  0  0  0  0  0  0  0  0
    0.2803   28.9750    7.0895 S   0  0  0  0  0  0  0  0  0  0  0  0
    0.8141   29.3192    5.7890 O   0  0  0  0  0  0  0  0  0  0  0  0
   -1.3750   29.6482    7.2092 C   0  0  0  0  0  0  0  0  0  0  0  0
   -1.5068   31.0947    6.7326 C   0  0  0  0  0  0  0  0  0  0  0  0
   -1.8698   32.1156    7.8180 C   0  0  0  0  0  0  0  0  0  0  0  0
   -1.2494   31.8487    9.1996 C   0  0  0  0  0  0  0  0  0  0  0  0
   -2.3658   32.0376   10.2275 C   0  0  0  0  0  0  0  0  0  0  0  0
   -3.4876   32.7317    9.4763 C   0  0  0  0  0  0  0  0  0  0  0  0
   -3.3805   32.1336    8.0857 C   0  0  0  0  0  0  0  0  0  0  0  0
 14 15  2  0  0  0
 15 16  2  0  0  0
 15 17  1  0  0  0
 17 18  1  0  0  0
 18 19  1  0  0  0
 19 20  1  0  0  0
 20 21  1  0  0  0
 21 22  1  0  0  0
 22 23  1  0  0  0
 15  1  1  0  0  0
  1  3  1  0  0  0
  3  4  1  0  0  0
  4  5  2  0  0  0
  5  6  1  0  0  0
  6  9  1  0  0  0
  9 10  1  0  0  0
 10 11  2  0  0  0
 11 12  1  0  0  0
 12 13  2  0  0  0
  6  7  2  0  0  0
  7  8  1  0  0  0
 23 19  1  0  0  0
  8  3  2  0  0  0
 13  9  1  0  0  0
  1  2  1  0  0  0
M  END
> <minimizedAffinity>
-8.79995

$$$$
OCNT-2315390


 29 32  0  0  0  0  0  0  0  0999 V2000
   -6.4289   28.4487    6.3648 C   0  0  0  0  0  0  0  0  0  0  0  0
   -7.4505   29.1262    6.4171 O   0  0  0  0  0  0  0  0  0  0  0  0
   -5.4310   28.5211    7.3041 N   0  0  0  0  0  0  0  0  0  0  0  0
   -4.5168   28.1829    7.0285 H   0  0  0  0  0  0  0  0  0  0  0  0
   -5.3774   23.7277    2.7686 C   0  0  0  0  0  0  0  0  0  0  0  0
   -5.3858   24.6631    1.7318 C   0  0  0  0  0  0  0  0  0  0  0  0
   -5.5958   26.0257    1.9800 C   0  0  0  0  0  0  0  0  0  0  0  0
   -5.8027   26.4543    3.3031 C   0  0  0  0  0  0  0  0  0  0  0  0
   -6.0390   27.7201    3.9083 C   0  0  0  0  0  0  0  0  0  0  0  0
   -6.1746   27.5338    5.2739 C   0  0  0  0  0  0  0  0  0  0  0  0
   -6.0090   26.1840    5.4987 N   0  0  0  0  0  0  0  0  0  0  0  0
   -5.7897   25.5072    4.3231 C   0  0  0  0  0  0  0  0  0  0  0  0
   -5.5801   24.1388    4.0912 C   0  0  0  0  0  0  0  0  0  0  0  0
   -6.0503   25.7653    6.4189 H   0  0  0  0  0  0  0  0  0  0  0  0
   -5.0188   21.4561    3.3805 C   0  0  0  0  0  0  0  0  0  0  0  0
   -5.1590   22.4375    2.3610 O   0  0  0  0  0  0  0  0  0  0  0  0
   -5.3728   29.5674    8.3312 C   0  0  0  0  0  0  0  0  0  0  0  0
   -5.4991   28.9456    9.7277 C   0  0  0  0  0  0  0  0  0  0  0  0
   -4.0923   30.4818    8.0767 C   0  0  0  0  0  0  0  0  0  0  0  0
   -2.8903   29.9940    8.9240 C   0  0  0  0  0  0  0  0  0  0  0  0
   -1.6410   30.4990    8.2136 C   0  0  0  0  0  0  0  0  0  0  0  0
   -2.0144   30.5927    6.7371 C   0  0  0  0  0  0  0  0  0  0  0  0
   -3.5100   30.2718    6.6515 C   0  0  0  0  0  0  0  0  0  0  0  0
   -4.5197   31.9045    8.3360 N   0  0  0  0  0  0  0  0  0  0  0  0
   -3.7918   32.5746    9.4409 C   0  0  0  0  0  0  0  0  0  0  0  0
   -4.4646   33.9006    9.8327 C   0  0  0  0  0  0  0  0  0  0  0  0
   -4.5324   34.7898    8.7125 O   0  0  0  0  0  0  0  0  0  0  0  0
   -5.2696   34.1786    7.6495 C   0  0  0  0  0  0  0  0  0  0  0  0
   -4.6308   32.8463    7.2089 C   0  0  0  0  0  0  0  0  0  0  0  0
 15 16  1  0  0  0
 16  5  1  0  0  0
  5  6  2  0  0  0
  6  7  1  0  0  0
  7  8  2  0  0  0
  8  9  1  0  0  0
  9 10  2  0  0  0
 10  1  1  0  0  0
  1  2  2  0  0  0
  1  3  1  0  0  0
  3 17  1  0  0  0
 17 18  1  0  0  0
 17 19  1  0  0  0
 19 24  1  0  0  0
 24 25  1  0  0  0
 25 26  1  0  0  0
 26 27  1  0  0  0
 27 28  1  0  0  0
 28 29  1  0  0  0
 19 20  1  0  0  0
 20 21  1  0  0  0
 21 22  1  0  0  0
 22 23  1  0  0  0
 10 11  1  0  0  0
 11 12  1  0  0  0
 12 13  2  0  0  0
 13  5  1  0  0  0
 12  8  1  0  0  0
 23 19  1  0  0  0
 29 24  1  0  0  0
  3  4  1  0  0  0
 11 14  1  0  0  0
M  END
> <minimizedAffinity>
-9.34296

$$$$
OCNT-2315394


 23 26  0  0  0  0  0  0  0  0999 V2000
   -6.2310   29.7415    5.0577 O   0  0  0  0  0  0  0  0  0  0  0  0
   -5.4151   28.8981    5.4451 C   0  0  0  0  0  0  0  0  0  0  0  0
   -4.9228   27.9234    4.5704 N   0  0  0  0  0  0  0  0  0  0  0  0
   -3.9376   26.9085    4.9420 C   0  0  0  0  0  0  0  0  0  0  0  0
   -3.6649   25.8971    3.8304 C   0  0  0  0  0  0  0  0  0  0  0  0
   -4.9535   25.3986    3.1528 C   0  0  0  0  0  0  0  0  0  0  0  0
   -5.9016   26.5579    2.7711 C   0  0  0  0  0  0  0  0  0  0  0  0
   -5.3646   27.9276    3.1793 C   0  0  0  0  0  0  0  0  0  0  0  0
   -4.9357   28.8634    6.9180 C   0  0  0  0  0  0  0  0  0  0  0  0
   -6.4102   29.0504    8.0135 S   0  0  0  0  0  0  0  0  0  0  0  0
   -6.5971   30.8645    7.9007 C   0  0  0  0  0  0  0  0  0  0  0  0
   -5.3777   31.5958    8.4600 C   0  0  0  0  0  0  0  0  0  0  0  0
   -4.0935   31.1134    7.8525 C   0  0  0  0  0  0  0  0  0  0  0  0
   -3.8800   29.9143    7.1897 C   0  0  0  0  0  0  0  0  0  0  0  0
   -2.5069   29.8007    6.7818 C   0  0  0  0  0  0  0  0  0  0  0  0
   -1.7532   30.8945    7.1428 C   0  0  0  0  0  0  0  0  0  0  0  0
   -2.6780   32.0604    7.9771 S   0  0  0  0  0  0  0  0  0  0  0  0
   -5.6161   24.3045    3.9772 C   0  0  0  0  0  0  0  0  0  0  0  0
   -5.1691   22.9827    3.8598 C   0  0  0  0  0  0  0  0  0  0  0  0
   -5.7639   21.9981    4.6356 C   0  0  0  0  0  0  0  0  0  0  0  0
   -6.7574   22.2335    5.5164 N   0  0  0  0  0  0  0  0  0  0  0  0
   -7.1748   23.5118    5.6240 C   0  0  0  0  0  0  0  0  0  0  0  0
   -6.6444   24.5632    4.8903 C   0  0  0  0  0  0  0  0  0  0  0  0
  1  2  2  0  0  0
  2  9  1  0  0  0
  9 10  1  0  0  0
 10 11  1  0  0  0
 11 12  1  0  0  0
 12 13  1  0  0  0
 13 14  2  0  0  0
 14 15  1  0  0  0
 15 16  2  0  0  0
 16 17  1  0  0  0
  2  3  1  0  0  0
  3  4  1  0  0  0
  4  5  1  0  0  0
  5  6  1  0  0  0
  6 18  1  0  0  0
 18 19  2  0  0  0
 19 20  1  0  0  0
 20 21  2  0  0  0
 21 22  1  0  0  0
 22 23  2  0  0  0
  6  7  1  0  0  0
  7  8  1  0  0  0
 14  9  1  0  0  0
  8  3  1  0  0  0
 17 13  1  0  0  0
 23 18  1  0  0  0
M  END
> <minimizedAffinity>
-7.73329

$$$$
OCNT-2315408


 34 37  0  0  0  0  0  0  0  0999 V2000
   -6.2235   28.4557    6.3118 C   0  0  0  0  0  0  0  0  0  0  0  0
   -5.2115   29.4748    6.5062 N   0  0  0  0  0  0  0  0  0  0  0  0
   -4.7314   30.2868    5.5313 C   0  0  0  0  0  0  0  0  0  0  0  0
   -5.0616   30.2663    4.3550 O   0  0  0  0  0  0  0  0  0  0  0  0
   -3.7439   31.0793    6.0527 N   0  0  0  0  0  0  0  0  0  0  0  0
   -3.4208   30.7294    7.4253 C   0  0  0  0  0  0  0  0  0  0  0  0
   -3.6889   31.9416    8.3287 C   0  0  0  0  0  0  0  0  0  0  0  0
   -3.0866   31.7516    9.7160 C   0  0  0  0  0  0  0  0  0  0  0  0
   -1.5752   31.5790    9.6167 C   0  0  0  0  0  0  0  0  0  0  0  0
   -1.1647   30.5413    8.6012 C   0  0  0  0  0  0  0  0  0  0  0  0
    0.1186   29.9790    8.7072 C   0  0  0  0  0  0  0  0  0  0  0  0
    0.5570   29.0245    7.7935 C   0  0  0  0  0  0  0  0  0  0  0  0
   -0.2764   28.6287    6.7551 C   0  0  0  0  0  0  0  0  0  0  0  0
   -1.5483   29.1895    6.6290 C   0  0  0  0  0  0  0  0  0  0  0  0
   -2.0137   30.1571    7.5433 C   0  0  0  0  0  0  0  0  0  0  0  0
   -4.4989   29.6407    7.6639 C   0  0  0  0  0  0  0  0  0  0  0  0
   -4.6889   29.0252    8.7055 O   0  0  0  0  0  0  0  0  0  0  0  0
   -3.1473   31.6360    5.4562 H   0  0  0  0  0  0  0  0  0  0  0  0
   -6.5136   26.1723    5.4877 N   0  0  0  0  0  0  0  0  0  0  0  0
   -5.6103   27.2146    5.6564 C   0  0  0  0  0  0  0  0  0  0  0  0
   -4.4047   27.1447    5.4287 O   0  0  0  0  0  0  0  0  0  0  0  0
   -7.3961   26.2458    5.9980 H   0  0  0  0  0  0  0  0  0  0  0  0
   -5.7579   23.6409    2.8604 C   0  0  0  0  0  0  0  0  0  0  0  0
   -5.8323   22.4632    3.6097 C   0  0  0  0  0  0  0  0  0  0  0  0
   -6.1410   22.5348    4.9660 C   0  0  0  0  0  0  0  0  0  0  0  0
   -6.3689   23.7771    5.5650 C   0  0  0  0  0  0  0  0  0  0  0  0
   -6.2780   24.9578    4.8178 C   0  0  0  0  0  0  0  0  0  0  0  0
   -5.9983   24.8833    3.4541 C   0  0  0  0  0  0  0  0  0  0  0  0
   -5.4428   23.5595    1.1096 S   0  0  0  0  0  0  0  0  0  0  0  0
   -5.4977   22.1637    0.7291 O   0  0  0  0  0  0  0  0  0  0  0  0
   -4.2565   24.3513    0.8531 O   0  0  0  0  0  0  0  0  0  0  0  0
   -6.4811   25.5491   -0.4211 C   0  0  0  0  0  0  0  0  0  0  0  0
   -6.7702   24.3732    0.4215 N   0  0  0  0  0  0  0  0  0  0  0  0
   -7.8594   23.5320   -0.1015 C   0  0  0  0  0  0  0  0  0  0  0  0
 32 33  1  0  0  0
 33 34  1  0  0  0
 33 29  1  0  0  0
 29 30  2  0  0  0
 29 31  2  0  0  0
 29 23  1  0  0  0
 23 24  2  0  0  0
 24 25  1  0  0  0
 25 26  2  0  0  0
 26 27  1  0  0  0
 27 19  1  0  0  0
 19 20  1  0  0  0
 20 21  2  0  0  0
 20  1  1  0  0  0
  1  2  1  0  0  0
  2  3  1  0  0  0
  3  4  2  0  0  0
  3  5  1  0  0  0
  5  6  1  0  0  0
  6  7  1  0  0  0
  7  8  1  0  0  0
  8  9  1  0  0  0
  9 10  1  0  0  0
 10 11  2  0  0  0
 11 12  1  0  0  0
 12 13  2  0  0  0
 13 14  1  0  0  0
 14 15  2  0  0  0
  6 16  1  0  0  0
 16 17  2  0  0  0
 27 28  2  0  0  0
 28 23  1  0  0  0
 16  2  1  0  0  0
 15  6  1  0  0  0
 15 10  1  0  0  0
 19 22  1  0  0  0
  5 18  1  0  0  0
M  END
> <minimizedAffinity>
-10.89745

$$$$
OCNT-2315417


 27 29  0  0  0  0  0  0  0  0999 V2000
   -6.1846   29.4223    6.7990 C   0  0  0  0  0  0  0  0  0  0  0  0
   -6.5304   28.8264    7.8172 O   0  0  0  0  0  0  0  0  0  0  0  0
   -5.8530   30.7652    6.8280 N   0  0  0  0  0  0  0  0  0  0  0  0
   -5.6050   31.2394    5.9733 H   0  0  0  0  0  0  0  0  0  0  0  0
   -5.8700   27.0589    4.1367 C   0  0  0  0  0  0  0  0  0  0  0  0
   -6.0115   28.1669    3.3293 C   0  0  0  0  0  0  0  0  0  0  0  0
   -6.1451   29.2808    4.1953 C   0  0  0  0  0  0  0  0  0  0  0  0
   -6.0985   28.7956    5.4911 C   0  0  0  0  0  0  0  0  0  0  0  0
   -5.9412   27.4345    5.4451 O   0  0  0  0  0  0  0  0  0  0  0  0
   -5.7084   25.6055    3.9030 C   0  0  0  0  0  0  0  0  0  0  0  0
   -4.2006   23.6091    2.7109 C   0  0  0  0  0  0  0  0  0  0  0  0
   -4.6312   25.3189    2.5061 S   0  0  0  0  0  0  0  0  0  0  0  0
   -3.4095   26.0846    2.6687 O   0  0  0  0  0  0  0  0  0  0  0  0
   -5.4111   25.4143    1.2844 O   0  0  0  0  0  0  0  0  0  0  0  0
   -5.9278   31.5532    8.0435 C   0  0  0  0  0  0  0  0  0  0  0  0
   -4.7767   32.5720    8.1510 C   0  0  0  0  0  0  0  0  0  0  0  0
   -4.0459   32.4300    9.4910 C   0  0  0  0  0  0  0  0  0  0  0  0
   -3.2793   31.1046    9.6066 C   0  0  0  0  0  0  0  0  0  0  0  0
   -2.8346   30.5684    8.3094 N   0  0  0  0  0  0  0  0  0  0  0  0
   -2.4975   31.6489    7.3805 C   0  0  0  0  0  0  0  0  0  0  0  0
   -3.7651   32.4254    6.9945 C   0  0  0  0  0  0  0  0  0  0  0  0
   -1.7230   29.6208    8.4997 C   0  0  0  0  0  0  0  0  0  0  0  0
   -1.7219   28.5332    7.4591 C   0  0  0  0  0  0  0  0  0  0  0  0
   -2.8049   27.8770    6.9040 C   0  0  0  0  0  0  0  0  0  0  0  0
   -2.4155   26.8916    5.9526 C   0  0  0  0  0  0  0  0  0  0  0  0
   -1.0476   26.8218    5.8158 C   0  0  0  0  0  0  0  0  0  0  0  0
   -0.2423   27.9382    6.8299 S   0  0  0  0  0  0  0  0  0  0  0  0
 11 12  1  0  0  0
 12 13  2  0  0  0
 12 14  2  0  0  0
 12 10  1  0  0  0
 10  5  1  0  0  0
  5  6  2  0  0  0
  6  7  1  0  0  0
  7  8  2  0  0  0
  8  1  1  0  0  0
  1  2  2  0  0  0
  1  3  1  0  0  0
  3 15  1  0  0  0
 15 16  1  0  0  0
 16 17  1  0  0  0
 17 18  1  0  0  0
 18 19  1  0  0  0
 19 22  1  0  0  0
 22 23  1  0  0  0
 23 24  2  0  0  0
 24 25  1  0  0  0
 25 26  2  0  0  0
 26 27  1  0  0  0
 19 20  1  0  0  0
 20 21  1  0  0  0
  8  9  1  0  0  0
  9  5  1  0  0  0
 21 16  1  0  0  0
 27 23  1  0  0  0
  3  4  1  0  0  0
M  END
> <minimizedAffinity>
-8.10594

$$$$
OCNT-2315433


 26 28  0  0  0  0  0  0  0  0999 V2000
   -2.2975   27.0909    5.7988 N   0  0  0  0  0  0  0  0  0  0  0  0
   -0.9932   27.3635    6.3763 C   0  0  0  0  0  0  0  0  0  0  0  0
   -2.3236   26.2319    4.7009 C   0  0  0  0  0  0  0  0  0  0  0  0
   -1.3133   25.7416    4.2063 O   0  0  0  0  0  0  0  0  0  0  0  0
   -3.6463   25.8908    4.1090 C   0  0  0  0  0  0  0  0  0  0  0  0
   -4.2824   26.8335    3.1059 C   0  0  0  0  0  0  0  0  0  0  0  0
   -3.7429   25.5101    2.6405 C   0  0  0  0  0  0  0  0  0  0  0  0
   -4.6717   24.4024    2.1749 C   0  0  0  0  0  0  0  0  0  0  0  0
   -4.5655   23.0647    2.5998 C   0  0  0  0  0  0  0  0  0  0  0  0
   -5.4353   22.0706    2.1382 C   0  0  0  0  0  0  0  0  0  0  0  0
   -6.4434   22.3920    1.2346 C   0  0  0  0  0  0  0  0  0  0  0  0
   -6.5749   23.7058    0.8015 C   0  0  0  0  0  0  0  0  0  0  0  0
   -7.8189   24.1171   -0.3144 Cl  0  0  0  0  0  0  0  0  0  0  0  0
   -5.7038   24.6956    1.2629 C   0  0  0  0  0  0  0  0  0  0  0  0
   -3.4595   27.8048    6.3384 C   0  0  0  0  0  0  0  0  0  0  0  0
   -3.7815   31.6739    8.4661 N   0  0  0  0  0  0  0  0  0  0  0  0
   -3.7068   30.4285    9.2419 C   0  0  0  0  0  0  0  0  0  0  0  0
   -4.0537   29.1713    8.4392 C   0  0  0  0  0  0  0  0  0  0  0  0
   -3.1777   29.0631    7.1852 C   0  0  0  0  0  0  0  0  0  0  0  0
   -3.2161   30.3719    6.3844 C   0  0  0  0  0  0  0  0  0  0  0  0
   -2.9181   31.5816    7.2781 C   0  0  0  0  0  0  0  0  0  0  0  0
   -5.1604   32.0803    8.1069 C   0  0  0  0  0  0  0  0  0  0  0  0
   -4.5044   34.2779    9.1755 C   0  0  0  0  0  0  0  0  0  0  0  0
   -5.4217   33.6059    8.1591 C   0  0  0  0  0  0  0  0  0  0  0  0
   -5.1552   34.2000    6.8852 O   0  0  0  0  0  0  0  0  0  0  0  0
   -5.4281   35.1313    6.9413 H   0  0  0  0  0  0  0  0  0  0  0  0
 23 24  1  0  0  0
 24 25  1  0  0  0
 24 22  1  0  0  0
 22 16  1  0  0  0
 16 17  1  0  0  0
 17 18  1  0  0  0
 18 19  1  0  0  0
 19 15  1  0  0  0
 15  1  1  0  0  0
  1  2  1  0  0  0
  1  3  1  0  0  0
  3  4  2  0  0  0
  3  5  1  0  0  0
  5  6  1  0  0  0
  6  7  1  0  0  0
  7  8  1  0  0  0
  8  9  2  0  0  0
  9 10  1  0  0  0
 10 11  2  0  0  0
 11 12  1  0  0  0
 12 13  1  0  0  0
 12 14  2  0  0  0
 19 20  1  0  0  0
 20 21  1  0  0  0
 21 16  1  0  0  0
  7  5  1  0  0  0
 14  8  1  0  0  0
 25 26  1  0  0  0
M  END
> <minimizedAffinity>
-9.08169

$$$$
OCNT-2315444


 25 28  0  0  0  0  0  0  0  0999 V2000
   -6.1133   29.1601    5.6610 C   0  0  0  0  0  0  0  0  0  0  0  0
   -6.0417   29.7142    4.3822 C   0  0  0  0  0  0  0  0  0  0  0  0
   -5.9417   28.8778    3.2635 C   0  0  0  0  0  0  0  0  0  0  0  0
   -5.8974   27.4846    3.4002 C   0  0  0  0  0  0  0  0  0  0  0  0
   -6.0341   26.9508    4.6917 C   0  0  0  0  0  0  0  0  0  0  0  0
   -6.1366   27.7755    5.8163 C   0  0  0  0  0  0  0  0  0  0  0  0
   -7.3652   30.4151    7.1704 O   0  0  0  0  0  0  0  0  0  0  0  0
   -6.2451   30.0189    6.8593 C   0  0  0  0  0  0  0  0  0  0  0  0
   -5.1027   30.3293    7.5770 N   0  0  0  0  0  0  0  0  0  0  0  0
   -3.8046   29.6799    7.4709 C   0  0  0  0  0  0  0  0  0  0  0  0
   -3.1934   29.8352    8.8538 C   0  0  0  0  0  0  0  0  0  0  0  0
   -3.7703   31.1499    9.3715 C   0  0  0  0  0  0  0  0  0  0  0  0
   -3.0244   32.4064    8.8952 C   0  0  0  0  0  0  0  0  0  0  0  0
   -3.9585   33.1178    7.9232 C   0  0  0  0  0  0  0  0  0  0  0  0
   -5.3501   32.6831    8.3591 C   0  0  0  0  0  0  0  0  0  0  0  0
   -5.1690   31.2158    8.7372 C   0  0  0  0  0  0  0  0  0  0  0  0
   -5.8505   26.6049    2.3215 N   0  0  0  0  0  0  0  0  0  0  0  0
   -6.7709   26.4044    1.9297 H   0  0  0  0  0  0  0  0  0  0  0  0
   -4.9505   25.4513    2.2898 C   0  0  0  0  0  0  0  0  0  0  0  0
   -5.1983   24.5201    1.0995 C   0  0  0  0  0  0  0  0  0  0  0  0
   -5.3911   23.1396    1.4941 N   0  0  0  0  0  0  0  0  0  0  0  0
   -6.0497   22.1765    0.7831 C   0  0  0  0  0  0  0  0  0  0  0  0
   -5.9654   21.0452    1.5614 C   0  0  0  0  0  0  0  0  0  0  0  0
   -5.2697   21.2993    2.7152 N   0  0  0  0  0  0  0  0  0  0  0  0
   -4.9270   22.5655    2.6426 C   0  0  0  0  0  0  0  0  0  0  0  0
  7  8  2  0  0  0
  8  1  1  0  0  0
  1  2  1  0  0  0
  2  3  2  0  0  0
  3  4  1  0  0  0
  4 17  1  0  0  0
 17 19  1  0  0  0
 19 20  1  0  0  0
 20 21  1  0  0  0
 21 22  1  0  0  0
 22 23  2  0  0  0
 23 24  1  0  0  0
 24 25  2  0  0  0
  4  5  2  0  0  0
  5  6  1  0  0  0
  8  9  1  0  0  0
  9 10  1  0  0  0
 10 11  1  0  0  0
 11 12  1  0  0  0
 12 13  1  0  0  0
 13 14  1  0  0  0
 14 15  1  0  0  0
 15 16  1  0  0  0
  6  1  2  0  0  0
 16  9  1  0  0  0
 25 21  1  0  0  0
 16 12  1  0  0  0
 17 18  1  0  0  0
M  END
> <minimizedAffinity>
-8.88370

$$$$
OCNT-2315451


 28 32  0  0  0  0  0  0  0  0999 V2000
   -6.1564   23.2819    1.0811 C   0  0  0  0  0  0  0  0  0  0  0  0
   -5.7348   24.3754    0.3361 C   0  0  0  0  0  0  0  0  0  0  0  0
   -5.4940   25.5924    0.9727 C   0  0  0  0  0  0  0  0  0  0  0  0
   -5.6637   25.7281    2.3629 C   0  0  0  0  0  0  0  0  0  0  0  0
   -5.4329   27.0840    2.9932 C   0  0  0  0  0  0  0  0  0  0  0  0
   -5.1336   27.0248    4.4307 N   0  0  0  0  0  0  0  0  0  0  0  0
   -6.0949   26.2217    5.1936 C   0  0  0  0  0  0  0  0  0  0  0  0
   -6.2865   24.8030    4.6572 C   0  0  0  0  0  0  0  0  0  0  0  0
   -5.8955   23.6492    5.5726 C   0  0  0  0  0  0  0  0  0  0  0  0
   -7.3444   23.9725    5.3741 C   0  0  0  0  0  0  0  0  0  0  0  0
   -6.1043   24.6396    3.1423 C   0  0  0  0  0  0  0  0  0  0  0  0
   -6.3361   23.4245    2.4622 C   0  0  0  0  0  0  0  0  0  0  0  0
   -3.7750   26.7940    4.7244 C   0  0  0  0  0  0  0  0  0  0  0  0
   -3.0894   25.9209    3.9676 N   0  0  0  0  0  0  0  0  0  0  0  0
   -1.7886   25.7684    4.2296 C   0  0  0  0  0  0  0  0  0  0  0  0
   -1.0997   26.3773    5.1991 N   0  0  0  0  0  0  0  0  0  0  0  0
   -1.7894   27.2021    5.9868 C   0  0  0  0  0  0  0  0  0  0  0  0
   -1.1157   27.8343    7.0275 C   0  0  0  0  0  0  0  0  0  0  0  0
   -1.7644   28.6897    7.9223 C   0  0  0  0  0  0  0  0  0  0  0  0
   -3.1302   28.9004    7.7817 C   0  0  0  0  0  0  0  0  0  0  0  0
   -3.8294   28.2954    6.7377 C   0  0  0  0  0  0  0  0  0  0  0  0
   -3.1610   27.4507    5.8145 C   0  0  0  0  0  0  0  0  0  0  0  0
   -3.9881   29.9842    8.8959 S   0  0  0  0  0  0  0  0  0  0  0  0
   -4.8234   31.1113    7.8108 C   0  0  0  0  0  0  0  0  0  0  0  0
   -2.9815   30.7211    9.6357 O   0  0  0  0  0  0  0  0  0  0  0  0
   -4.9902   29.1956    9.5868 O   0  0  0  0  0  0  0  0  0  0  0  0
   -6.0479   20.9294    1.4069 C   0  0  0  0  0  0  0  0  0  0  0  0
   -6.4293   22.0325    0.5947 O   0  0  0  0  0  0  0  0  0  0  0  0
 27 28  1  0  0  0
 28  1  1  0  0  0
  1  2  1  0  0  0
  2  3  2  0  0  0
  3  4  1  0  0  0
  4  5  1  0  0  0
  5  6  1  0  0  0
  6 13  1  0  0  0
 13 14  1  0  0  0
 14 15  2  0  0  0
 15 16  1  0  0  0
 16 17  2  0  0  0
 17 18  1  0  0  0
 18 19  2  0  0  0
 19 20  1  0  0  0
 20 23  1  0  0  0
 23 24  1  0  0  0
 23 25  2  0  0  0
 23 26  2  0  0  0
 20 21  2  0  0  0
 21 22  1  0  0  0
  6  7  1  0  0  0
  7  8  1  0  0  0
  8  9  1  0  0  0
  9 10  1  0  0  0
  8 11  1  0  0  0
 11 12  1  0  0  0
 12  1  2  0  0  0
 11  4  2  0  0  0
 22 13  2  0  0  0
 10  8  1  0  0  0
 22 17  1  0  0  0
M  END
> <minimizedAffinity>
-10.14909

$$$$
OCNT-2315460


 30 33  0  0  0  0  0  0  0  0999 V2000
   -6.3963   22.1238   -0.6719 C   0  0  0  0  0  0  0  0  0  0  0  0
   -6.6819   23.1890    0.2864 N   0  0  0  0  0  0  0  0  0  0  0  0
   -7.2805   22.6691    1.5324 C   0  0  0  0  0  0  0  0  0  0  0  0
   -6.2075   22.8060    2.6210 C   0  0  0  0  0  0  0  0  0  0  0  0
   -5.5077   24.0962    2.1785 C   0  0  0  0  0  0  0  0  0  0  0  0
   -5.4617   23.9320    0.6581 C   0  0  0  0  0  0  0  0  0  0  0  0
   -6.0854   25.4598    2.6418 C   0  0  0  0  0  0  0  0  0  0  0  0
   -4.9160   25.5753    3.4922 N   0  0  0  0  0  0  0  0  0  0  0  0
   -4.7245   26.0679    4.7577 C   0  0  0  0  0  0  0  0  0  0  0  0
   -3.6539   25.9524    5.3554 O   0  0  0  0  0  0  0  0  0  0  0  0
   -4.1687   24.5174    2.8318 C   0  0  0  0  0  0  0  0  0  0  0  0
   -6.6482   22.8083    4.0616 C   0  0  0  0  0  0  0  0  0  0  0  0
   -7.9644   23.0417    4.2523 N   0  0  0  0  0  0  0  0  0  0  0  0
   -8.4812   22.9832    5.4952 C   0  0  0  0  0  0  0  0  0  0  0  0
   -7.7186   22.7303    6.5712 N   0  0  0  0  0  0  0  0  0  0  0  0
   -6.4060   22.5340    6.3654 C   0  0  0  0  0  0  0  0  0  0  0  0
   -5.8118   22.5625    5.1267 C   0  0  0  0  0  0  0  0  0  0  0  0
   -9.8435   23.2303    5.6763 N   0  0  0  0  0  0  0  0  0  0  0  0
  -10.1198   24.1978    6.7300 C   0  0  0  0  0  0  0  0  0  0  0  0
  -10.6778   22.0310    5.6738 C   0  0  0  0  0  0  0  0  0  0  0  0
   -5.9402   26.7525    5.3476 C   0  0  0  0  0  0  0  0  0  0  0  0
   -5.8209   28.2738    5.3533 C   0  0  0  0  0  0  0  0  0  0  0  0
   -5.4666   28.7680    6.7388 C   0  0  0  0  0  0  0  0  0  0  0  0
   -6.4619   28.9372    7.7091 C   0  0  0  0  0  0  0  0  0  0  0  0
   -6.1265   29.3334    9.0064 C   0  0  0  0  0  0  0  0  0  0  0  0
   -4.7942   29.5629    9.3475 C   0  0  0  0  0  0  0  0  0  0  0  0
   -3.7928   29.3963    8.3930 C   0  0  0  0  0  0  0  0  0  0  0  0
   -4.1349   28.9971    7.1025 C   0  0  0  0  0  0  0  0  0  0  0  0
   -3.1666   28.8171    6.1594 O   0  0  0  0  0  0  0  0  0  0  0  0
   -2.2979   28.7408    6.5876 H   0  0  0  0  0  0  0  0  0  0  0  0
  1  2  1  0  0  0
  2  3  1  0  0  0
  3  4  1  0  0  0
  4 12  1  0  0  0
 12 13  2  0  0  0
 13 14  1  0  0  0
 14 18  1  0  0  0
 18 19  1  0  0  0
 18 20  1  0  0  0
 14 15  2  0  0  0
 15 16  1  0  0  0
 16 17  2  0  0  0
  4  5  1  0  0  0
  5  6  1  0  0  0
  5  7  1  0  0  0
  7  8  1  0  0  0
  8  9  1  0  0  0
  9 10  2  0  0  0
  9 21  1  0  0  0
 21 22  1  0  0  0
 22 23  1  0  0  0
 23 24  2  0  0  0
 24 25  1  0  0  0
 25 26  2  0  0  0
 26 27  1  0  0  0
 27 28  2  0  0  0
 28 29  1  0  0  0
  8 11  1  0  0  0
  6  2  1  0  0  0
 28 23  1  0  0  0
 17 12  1  0  0  0
 11  5  1  0  0  0
 29 30  1  0  0  0
M  END
> <minimizedAffinity>
-7.89770

$$$$
OCNT-2315461


 24 25  0  0  0  0  0  0  0  0999 V2000
   -7.2774   29.9397    6.5394 C   0  0  0  0  0  0  0  0  0  0  0  0
   -6.3347   29.0315    7.3370 C   0  0  0  0  0  0  0  0  0  0  0  0
   -5.5708   28.0993    6.3494 C   0  0  0  0  0  0  0  0  0  0  0  0
   -4.3740   28.2168    6.1043 O   0  0  0  0  0  0  0  0  0  0  0  0
   -6.4159   27.1794    5.7403 N   0  0  0  0  0  0  0  0  0  0  0  0
   -7.3976   27.2047    5.9990 H   0  0  0  0  0  0  0  0  0  0  0  0
   -6.0921   26.1963    4.7728 C   0  0  0  0  0  0  0  0  0  0  0  0
   -5.9873   24.8323    5.0620 C   0  0  0  0  0  0  0  0  0  0  0  0
   -5.6599   23.9221    4.0521 C   0  0  0  0  0  0  0  0  0  0  0  0
   -5.5333   22.2448    4.4203 Cl  0  0  0  0  0  0  0  0  0  0  0  0
   -5.4337   24.3528    2.7460 C   0  0  0  0  0  0  0  0  0  0  0  0
   -5.5375   25.7085    2.4413 C   0  0  0  0  0  0  0  0  0  0  0  0
   -5.8658   26.6213    3.4473 C   0  0  0  0  0  0  0  0  0  0  0  0
   -5.9788   28.2964    3.0190 Cl  0  0  0  0  0  0  0  0  0  0  0  0
   -5.4145   29.7055    8.2972 N   0  0  0  0  0  0  0  0  0  0  0  0
   -5.5103   29.0898    9.6287 C   0  0  0  0  0  0  0  0  0  0  0  0
   -5.5925   31.1700    8.3850 C   0  0  0  0  0  0  0  0  0  0  0  0
   -4.3164   31.9209    7.9709 C   0  0  0  0  0  0  0  0  0  0  0  0
   -3.3627   32.1408    9.1455 C   0  0  0  0  0  0  0  0  0  0  0  0
   -1.9990   32.4033    8.5071 C   0  0  0  0  0  0  0  0  0  0  0  0
   -2.1037   31.9320    7.0583 C   0  0  0  0  0  0  0  0  0  0  0  0
   -3.4292   31.1873    6.9664 C   0  0  0  0  0  0  0  0  0  0  0  0
   -3.9410   31.2529    5.6465 O   0  0  0  0  0  0  0  0  0  0  0  0
   -4.9160   31.2671    5.7385 H   0  0  0  0  0  0  0  0  0  0  0  0
  1  2  1  0  0  0
  2  3  1  0  0  0
  3  4  2  0  0  0
  3  5  1  0  0  0
  5  7  1  0  0  0
  7  8  1  0  0  0
  8  9  2  0  0  0
  9 10  1  0  0  0
  9 11  1  0  0  0
 11 12  2  0  0  0
 12 13  1  0  0  0
 13 14  1  0  0  0
  2 15  1  0  0  0
 15 16  1  0  0  0
 15 17  1  0  0  0
 17 18  1  0  0  0
 18 19  1  0  0  0
 19 20  1  0  0  0
 20 21  1  0  0  0
 21 22  1  0  0  0
 22 23  1  0  0  0
 13  7  2  0  0  0
 22 18  1  0  0  0
  5  6  1  0  0  0
 23 24  1  0  0  0
M  END
> <minimizedAffinity>
-8.58852

$$$$
OCNT-2315468


 25 29  0  0  0  0  0  0  0  0999 V2000
   -5.6345   27.1661    4.4029 C   0  0  0  0  0  0  0  0  0  0  0  0
   -5.7412   27.7269    3.1870 N   0  0  0  0  0  0  0  0  0  0  0  0
   -5.8339   26.6393    2.3243 O   0  0  0  0  0  0  0  0  0  0  0  0
   -5.7760   25.5182    3.1012 C   0  0  0  0  0  0  0  0  0  0  0  0
   -5.6528   25.7872    4.3808 N   0  0  0  0  0  0  0  0  0  0  0  0
   -5.8534   24.1968    2.3955 C   0  0  0  0  0  0  0  0  0  0  0  0
   -6.2650   24.4270    0.9152 C   0  0  0  0  0  0  0  0  0  0  0  0
   -6.5524   23.1180    0.1742 C   0  0  0  0  0  0  0  0  0  0  0  0
   -7.4593   22.1849    0.9829 C   0  0  0  0  0  0  0  0  0  0  0  0
   -7.0257   22.0044    2.3780 N   0  0  0  0  0  0  0  0  0  0  0  0
   -5.7560   21.2621    2.4734 C   0  0  0  0  0  0  0  0  0  0  0  0
   -4.5876   22.0585    3.0636 C   0  0  0  0  0  0  0  0  0  0  0  0
   -4.4790   23.4693    2.4793 C   0  0  0  0  0  0  0  0  0  0  0  0
   -6.9480   23.3169    3.0447 C   0  0  0  0  0  0  0  0  0  0  0  0
   -6.5484   29.0961    7.4981 C   0  0  0  0  0  0  0  0  0  0  0  0
   -6.6568   28.3718    6.3116 C   0  0  0  0  0  0  0  0  0  0  0  0
   -5.5096   27.9239    5.6450 C   0  0  0  0  0  0  0  0  0  0  0  0
   -4.2470   28.2170    6.1923 C   0  0  0  0  0  0  0  0  0  0  0  0
   -4.1272   28.9466    7.3880 C   0  0  0  0  0  0  0  0  0  0  0  0
   -5.2917   29.3834    8.0357 C   0  0  0  0  0  0  0  0  0  0  0  0
   -2.8410   29.2372    7.9326 N   0  0  0  0  0  0  0  0  0  0  0  0
   -1.6950   28.4749    7.8353 C   0  0  0  0  0  0  0  0  0  0  0  0
   -0.7160   29.1604    8.5147 C   0  0  0  0  0  0  0  0  0  0  0  0
   -1.2086   30.3213    9.0319 N   0  0  0  0  0  0  0  0  0  0  0  0
   -2.4735   30.3434    8.6718 C   0  0  0  0  0  0  0  0  0  0  0  0
 15 16  2  0  0  0
 16 17  1  0  0  0
 17  1  1  0  0  0
  1  2  2  0  0  0
  2  3  1  0  0  0
  3  4  1  0  0  0
  4  6  1  0  0  0
  6  7  1  0  0  0
  7  8  1  0  0  0
  8  9  1  0  0  0
  9 10  1  0  0  0
 10 11  1  0  0  0
 11 12  1  0  0  0
 12 13  1  0  0  0
 10 14  1  0  0  0
  4  5  2  0  0  0
 17 18  2  0  0  0
 18 19  1  0  0  0
 19 21  1  0  0  0
 21 22  1  0  0  0
 22 23  2  0  0  0
 23 24  1  0  0  0
 24 25  2  0  0  0
 19 20  2  0  0  0
 20 15  1  0  0  0
  5  1  1  0  0  0
 25 21  1  0  0  0
 13  6  1  0  0  0
 14  6  1  0  0  0
M  END
> <minimizedAffinity>
-9.50706

$$$$
OCNT-2315469


 32 34  0  0  0  0  0  0  0  0999 V2000
   -6.0942   29.3040    6.5241 C   0  0  0  0  0  0  0  0  0  0  0  0
   -6.8716   28.8652    7.7685 C   0  0  0  0  0  0  0  0  0  0  0  0
   -5.8913   28.1326    5.6340 N   0  0  0  0  0  0  0  0  0  0  0  0
   -4.5383   27.5777    5.6380 C   0  0  0  0  0  0  0  0  0  0  0  0
   -4.5095   26.0829    5.2778 C   0  0  0  0  0  0  0  0  0  0  0  0
   -5.7277   25.5414    4.5175 C   0  0  0  0  0  0  0  0  0  0  0  0
   -5.9942   26.0936    3.1819 N   0  0  0  0  0  0  0  0  0  0  0  0
   -5.8369   27.5546    3.0995 C   0  0  0  0  0  0  0  0  0  0  0  0
   -6.4112   28.3948    4.2704 C   0  0  0  0  0  0  0  0  0  0  0  0
   -5.1788   25.4513    2.1309 C   0  0  0  0  0  0  0  0  0  0  0  0
   -5.9935   24.7278    1.0963 C   0  0  0  0  0  0  0  0  0  0  0  0
   -6.3686   25.2406   -0.0656 N   0  0  0  0  0  0  0  0  0  0  0  0
   -7.0896   24.2646   -0.6940 C   0  0  0  0  0  0  0  0  0  0  0  0
   -7.1643   23.1377    0.0859 C   0  0  0  0  0  0  0  0  0  0  0  0
   -6.4622   23.4357    1.2269 N   0  0  0  0  0  0  0  0  0  0  0  0
   -6.2434   22.5220    2.3434 C   0  0  0  0  0  0  0  0  0  0  0  0
   -7.4333   22.5030    3.3048 C   0  0  0  0  0  0  0  0  0  0  0  0
   -5.9026   21.1151    1.8511 C   0  0  0  0  0  0  0  0  0  0  0  0
   -4.1112   29.7978    7.9569 N   0  0  0  0  0  0  0  0  0  0  0  0
   -4.7713   30.0967    6.7725 C   0  0  0  0  0  0  0  0  0  0  0  0
   -4.3667   30.8973    5.9263 O   0  0  0  0  0  0  0  0  0  0  0  0
   -4.5785   29.1539    8.5772 H   0  0  0  0  0  0  0  0  0  0  0  0
   -1.7153   28.2294    7.5768 C   0  0  0  0  0  0  0  0  0  0  0  0
   -1.6944   29.5863    8.2392 C   0  0  0  0  0  0  0  0  0  0  0  0
   -2.8855   30.3293    8.4330 C   0  0  0  0  0  0  0  0  0  0  0  0
   -2.8179   31.5769    9.0735 C   0  0  0  0  0  0  0  0  0  0  0  0
   -1.6053   32.1067    9.5264 C   0  0  0  0  0  0  0  0  0  0  0  0
   -0.4293   31.3997    9.3383 C   0  0  0  0  0  0  0  0  0  0  0  0
   -0.4827   30.1635    8.6851 C   0  0  0  0  0  0  0  0  0  0  0  0
    0.7883   29.4904    8.4729 N   0  0  0  0  0  0  0  0  0  0  0  0
    1.4072   29.1202    9.4791 O   0  0  0  0  0  0  0  0  0  0  0  0
    1.1507   29.3396    7.3003 O   0  0  0  0  0  0  0  0  0  0  0  0
 23 24  1  0  0  0
 24 25  2  0  0  0
 25 19  1  0  0  0
 19 20  1  0  0  0
 20 21  2  0  0  0
 20  1  1  0  0  0
  1  2  1  0  0  0
  1  3  1  0  0  0
  3  4  1  0  0  0
  4  5  1  0  0  0
  5  6  1  0  0  0
  6  7  1  0  0  0
  7 10  1  0  0  0
 10 11  1  0  0  0
 11 12  2  0  0  0
 12 13  1  0  0  0
 13 14  2  0  0  0
 14 15  1  0  0  0
 15 16  1  0  0  0
 16 17  1  0  0  0
 16 18  1  0  0  0
  7  8  1  0  0  0
  8  9  1  0  0  0
 25 26  1  0  0  0
 26 27  2  0  0  0
 27 28  1  0  0  0
 28 29  2  0  0  0
 29 30  1  0  0  0
 30 31  2  0  0  0
 30 32  1  0  0  0
 29 24  1  0  0  0
  9  3  1  0  0  0
 15 11  1  0  0  0
 19 22  1  0  0  0
M  CHG 1  30   1
M  CHG 1  32  -1
M  END
> <minimizedAffinity>
-9.50846

$$$$
OCNT-2315488


 27 29  0  0  0  0  0  0  0  0999 V2000
   -4.0428   28.0465    5.4190 N   0  0  0  0  0  0  0  0  0  0  0  0
   -3.0870   28.4113    6.3308 C   0  0  0  0  0  0  0  0  0  0  0  0
   -2.3611   27.6346    6.9349 O   0  0  0  0  0  0  0  0  0  0  0  0
   -3.0589   29.7748    6.4955 N   0  0  0  0  0  0  0  0  0  0  0  0
   -4.2247   28.7441    4.7112 H   0  0  0  0  0  0  0  0  0  0  0  0
   -3.9695   30.2036    6.3829 H   0  0  0  0  0  0  0  0  0  0  0  0
   -4.9114   25.4568    2.3519 N   0  0  0  0  0  0  0  0  0  0  0  0
   -3.6850   25.1156    3.0900 C   0  0  0  0  0  0  0  0  0  0  0  0
   -3.1767   26.2796    3.9346 C   0  0  0  0  0  0  0  0  0  0  0  0
   -4.1986   26.6512    5.0177 C   0  0  0  0  0  0  0  0  0  0  0  0
   -5.6390   26.3670    4.5738 C   0  0  0  0  0  0  0  0  0  0  0  0
   -5.7735   26.4198    3.0546 C   0  0  0  0  0  0  0  0  0  0  0  0
   -5.6649   24.2530    1.9389 C   0  0  0  0  0  0  0  0  0  0  0  0
   -6.2033   24.3175    0.4869 C   0  0  0  0  0  0  0  0  0  0  0  0
   -6.0977   21.9367    0.8399 C   0  0  0  0  0  0  0  0  0  0  0  0
   -6.5238   22.9914   -0.0842 N   0  0  0  0  0  0  0  0  0  0  0  0
   -7.9534   22.8506   -0.3677 C   0  0  0  0  0  0  0  0  0  0  0  0
   -2.1899   30.3444    7.5078 C   0  0  0  0  0  0  0  0  0  0  0  0
   -1.9670   31.8412    7.3198 C   0  0  0  0  0  0  0  0  0  0  0  0
   -1.4568   32.3322    8.6727 C   0  0  0  0  0  0  0  0  0  0  0  0
   -1.8203   31.2572    9.7039 C   0  0  0  0  0  0  0  0  0  0  0  0
   -2.6774   30.2181    8.9677 C   0  0  0  0  0  0  0  0  0  0  0  0
   -4.1111   30.4024    9.1366 N   0  0  0  0  0  0  0  0  0  0  0  0
   -5.0039   29.3949    9.3989 C   0  0  0  0  0  0  0  0  0  0  0  0
   -6.2353   30.0028    9.4368 C   0  0  0  0  0  0  0  0  0  0  0  0
   -6.1168   31.3478    9.2102 N   0  0  0  0  0  0  0  0  0  0  0  0
   -4.8301   31.5610    9.0497 C   0  0  0  0  0  0  0  0  0  0  0  0
 15 16  1  0  0  0
 16 17  1  0  0  0
 16 14  1  0  0  0
 14 13  1  0  0  0
 13  7  1  0  0  0
  7  8  1  0  0  0
  8  9  1  0  0  0
  9 10  1  0  0  0
 10  1  1  0  0  0
  1  2  1  0  0  0
  2  3  2  0  0  0
  2  4  1  0  0  0
  4 18  1  0  0  0
 18 19  1  0  0  0
 19 20  1  0  0  0
 20 21  1  0  0  0
 21 22  1  0  0  0
 22 23  1  0  0  0
 23 24  1  0  0  0
 24 25  2  0  0  0
 25 26  1  0  0  0
 26 27  2  0  0  0
 10 11  1  0  0  0
 11 12  1  0  0  0
 12  7  1  0  0  0
 22 18  1  0  0  0
 27 23  1  0  0  0
  1  5  1  0  0  0
  4  6  1  0  0  0
M  END
> <minimizedAffinity>
-8.52895

$$$$
OCNT-2315490


 25 28  0  0  0  0  0  0  0  0999 V2000
   -2.2149   26.0301    5.5252 O   0  0  0  0  0  0  0  0  0  0  0  0
   -3.2451   26.6816    5.6553 C   0  0  0  0  0  0  0  0  0  0  0  0
   -4.4940   26.2215    5.2930 N   0  0  0  0  0  0  0  0  0  0  0  0
   -5.2689   26.8349    5.5403 H   0  0  0  0  0  0  0  0  0  0  0  0
   -3.2469   28.0579    6.2461 C   0  0  0  0  0  0  0  0  0  0  0  0
   -4.3681   28.8640    6.1232 C   0  0  0  0  0  0  0  0  0  0  0  0
   -4.3225   30.1398    6.6807 C   0  0  0  0  0  0  0  0  0  0  0  0
   -3.1640   30.5878    7.3193 C   0  0  0  0  0  0  0  0  0  0  0  0
   -3.1614   31.8402    7.9500 N   0  0  0  0  0  0  0  0  0  0  0  0
   -1.8544   32.3557    8.3421 C   0  0  0  0  0  0  0  0  0  0  0  0
   -1.0582   31.2772    9.0641 C   0  0  0  0  0  0  0  0  0  0  0  0
   -0.8293   30.0952    8.1287 C   0  0  0  0  0  0  0  0  0  0  0  0
   -2.0970   29.6786    7.4282 C   0  0  0  0  0  0  0  0  0  0  0  0
   -2.1052   28.4341    6.8857 N   0  0  0  0  0  0  0  0  0  0  0  0
   -3.7476   32.5222    7.4744 H   0  0  0  0  0  0  0  0  0  0  0  0
   -4.7233   24.8533    4.7819 C   0  0  0  0  0  0  0  0  0  0  0  0
   -4.2740   24.6177    3.3274 C   0  0  0  0  0  0  0  0  0  0  0  0
   -5.6273   24.8970    2.9355 N   0  0  0  0  0  0  0  0  0  0  0  0
   -6.1435   24.5936    4.2417 C   0  0  0  0  0  0  0  0  0  0  0  0
   -6.1935   24.5319    1.7006 C   0  0  0  0  0  0  0  0  0  0  0  0
   -6.1183   25.3958    0.6230 C   0  0  0  0  0  0  0  0  0  0  0  0
   -6.6802   24.9673   -0.5578 C   0  0  0  0  0  0  0  0  0  0  0  0
   -7.2795   23.7753   -0.7029 N   0  0  0  0  0  0  0  0  0  0  0  0
   -7.2932   23.0070    0.3942 C   0  0  0  0  0  0  0  0  0  0  0  0
   -6.7783   23.3240    1.5909 N   0  0  0  0  0  0  0  0  0  0  0  0
  1  2  2  0  0  0
  2  3  1  0  0  0
  3 16  1  0  0  0
 16 17  1  0  0  0
 17 18  1  0  0  0
 18 20  1  0  0  0
 20 21  1  0  0  0
 21 22  2  0  0  0
 22 23  1  0  0  0
 23 24  2  0  0  0
 24 25  1  0  0  0
 18 19  1  0  0  0
  2  5  1  0  0  0
  5  6  1  0  0  0
  6  7  2  0  0  0
  7  8  1  0  0  0
  8  9  1  0  0  0
  9 10  1  0  0  0
 10 11  1  0  0  0
 11 12  1  0  0  0
 12 13  1  0  0  0
 13 14  1  0  0  0
 19 16  1  0  0  0
 14  5  2  0  0  0
 25 20  2  0  0  0
 13  8  2  0  0  0
  3  4  1  0  0  0
  9 15  1  0  0  0
M  END
> <minimizedAffinity>
-8.34836

$$$$
OCNT-2315502


 23 25  0  0  0  0  0  0  0  0999 V2000
   -4.5546   27.2685    4.8994 C   0  0  0  0  0  0  0  0  0  0  0  0
   -5.5068   27.7065    3.7796 C   0  0  0  0  0  0  0  0  0  0  0  0
   -5.7761   26.5765    2.7815 C   0  0  0  0  0  0  0  0  0  0  0  0
   -4.5261   25.8711    2.4885 N   0  0  0  0  0  0  0  0  0  0  0  0
   -4.0349   25.1345    3.6693 C   0  0  0  0  0  0  0  0  0  0  0  0
   -4.4356   25.7509    5.0149 C   0  0  0  0  0  0  0  0  0  0  0  0
   -4.8216   27.9282    6.1877 N   0  0  0  0  0  0  0  0  0  0  0  0
   -4.8518   27.2520    6.9461 H   0  0  0  0  0  0  0  0  0  0  0  0
   -2.3607   29.9732    7.8891 C   0  0  0  0  0  0  0  0  0  0  0  0
   -3.0532   28.8550    7.4855 C   0  0  0  0  0  0  0  0  0  0  0  0
   -4.0865   29.0492    6.5906 C   0  0  0  0  0  0  0  0  0  0  0  0
   -4.4041   30.2787    6.1593 N   0  0  0  0  0  0  0  0  0  0  0  0
   -3.6643   31.2995    6.6180 C   0  0  0  0  0  0  0  0  0  0  0  0
   -2.6375   31.2153    7.4685 N   0  0  0  0  0  0  0  0  0  0  0  0
   -1.3250   29.7585    8.7791 O   0  0  0  0  0  0  0  0  0  0  0  0
    0.5983   29.3279    7.4396 C   0  0  0  0  0  0  0  0  0  0  0  0
   -0.4333   28.7191    8.3725 C   0  0  0  0  0  0  0  0  0  0  0  0
   -4.6186   24.9729    1.3270 C   0  0  0  0  0  0  0  0  0  0  0  0
   -6.0240   24.3990    1.1013 C   0  0  0  0  0  0  0  0  0  0  0  0
   -6.0234   22.8736    1.0002 C   0  0  0  0  0  0  0  0  0  0  0  0
   -7.3777   22.5502    0.3809 C   0  0  0  0  0  0  0  0  0  0  0  0
   -7.7567   23.7701   -0.4594 C   0  0  0  0  0  0  0  0  0  0  0  0
   -6.6610   24.8072   -0.2268 C   0  0  0  0  0  0  0  0  0  0  0  0
 16 17  1  0  0  0
 17 15  1  0  0  0
 15  9  1  0  0  0
  9 10  2  0  0  0
 10 11  1  0  0  0
 11  7  1  0  0  0
  7  1  1  0  0  0
  1  2  1  0  0  0
  2  3  1  0  0  0
  3  4  1  0  0  0
  4 18  1  0  0  0
 18 19  1  0  0  0
 19 20  1  0  0  0
 20 21  1  0  0  0
 21 22  1  0  0  0
 22 23  1  0  0  0
  4  5  1  0  0  0
  5  6  1  0  0  0
 11 12  2  0  0  0
 12 13  1  0  0  0
 13 14  2  0  0  0
 14  9  1  0  0  0
  6  1  1  0  0  0
 23 19  1  0  0  0
  7  8  1  0  0  0
M  END
> <minimizedAffinity>
-8.34981

$$$$
OCNT-2315505


 30 34  0  0  0  0  0  0  0  0999 V2000
   -5.0011   27.7336    5.1457 N   0  0  0  0  0  0  0  0  0  0  0  0
   -3.6808   27.1542    4.8995 C   0  0  0  0  0  0  0  0  0  0  0  0
   -3.8231   25.6748    4.5232 C   0  0  0  0  0  0  0  0  0  0  0  0
   -4.9248   25.4106    3.4778 C   0  0  0  0  0  0  0  0  0  0  0  0
   -5.4411   26.7199    2.8712 C   0  0  0  0  0  0  0  0  0  0  0  0
   -5.8201   27.7689    3.9246 C   0  0  0  0  0  0  0  0  0  0  0  0
   -6.0512   24.5427    3.9939 C   0  0  0  0  0  0  0  0  0  0  0  0
   -6.7930   24.7287    5.1506 C   0  0  0  0  0  0  0  0  0  0  0  0
   -7.7187   23.7241    5.2436 N   0  0  0  0  0  0  0  0  0  0  0  0
   -7.6043   22.8880    4.1707 C   0  0  0  0  0  0  0  0  0  0  0  0
   -8.3766   21.8044    3.9678 N   0  0  0  0  0  0  0  0  0  0  0  0
   -8.0641   21.1446    2.8298 C   0  0  0  0  0  0  0  0  0  0  0  0
   -7.0667   21.5030    1.9324 C   0  0  0  0  0  0  0  0  0  0  0  0
   -6.2968   22.6375    2.1938 C   0  0  0  0  0  0  0  0  0  0  0  0
   -6.5748   23.3639    3.3652 C   0  0  0  0  0  0  0  0  0  0  0  0
   -8.3973   23.5975    5.9791 H   0  0  0  0  0  0  0  0  0  0  0  0
   -4.9389   29.0622    5.7721 C   0  0  0  0  0  0  0  0  0  0  0  0
   -4.4283   29.0378    8.3575 C   0  0  0  0  0  0  0  0  0  0  0  0
   -5.1156   28.8873    9.5016 N   0  0  0  0  0  0  0  0  0  0  0  0
   -6.3931   28.7830    9.1153 N   0  0  0  0  0  0  0  0  0  0  0  0
   -6.5614   28.8461    7.7698 C   0  0  0  0  0  0  0  0  0  0  0  0
   -5.2998   28.9837    7.2222 C   0  0  0  0  0  0  0  0  0  0  0  0
   -7.1027   28.6665    9.8309 H   0  0  0  0  0  0  0  0  0  0  0  0
    1.1254   29.6707    8.4606 F   0  0  0  0  0  0  0  0  0  0  0  0
   -0.2053   29.5197    8.4390 C   0  0  0  0  0  0  0  0  0  0  0  0
   -0.7526   28.3375    7.9555 C   0  0  0  0  0  0  0  0  0  0  0  0
   -2.1400   28.1815    7.9337 C   0  0  0  0  0  0  0  0  0  0  0  0
   -2.9778   29.2119    8.3880 C   0  0  0  0  0  0  0  0  0  0  0  0
   -2.4058   30.3928    8.8848 C   0  0  0  0  0  0  0  0  0  0  0  0
   -1.0175   30.5470    8.9063 C   0  0  0  0  0  0  0  0  0  0  0  0
 24 25  1  0  0  0
 25 26  1  0  0  0
 26 27  2  0  0  0
 27 28  1  0  0  0
 28 18  1  0  0  0
 18 19  2  0  0  0
 19 20  1  0  0  0
 20 21  1  0  0  0
 21 22  2  0  0  0
 22 17  1  0  0  0
 17  1  1  0  0  0
  1  2  1  0  0  0
  2  3  1  0  0  0
  3  4  1  0  0  0
  4  7  1  0  0  0
  7  8  2  0  0  0
  8  9  1  0  0  0
  9 10  1  0  0  0
 10 11  1  0  0  0
 11 12  2  0  0  0
 12 13  1  0  0  0
 13 14  2  0  0  0
 14 15  1  0  0  0
  4  5  1  0  0  0
  5  6  1  0  0  0
 28 29  2  0  0  0
 29 30  1  0  0  0
 30 25  2  0  0  0
 22 18  1  0  0  0
  6  1  1  0  0  0
 15  7  1  0  0  0
 15 10  2  0  0  0
 20 23  1  0  0  0
  9 16  1  0  0  0
M  END
> <minimizedAffinity>
-9.87483

$$$$
OCNT-2315512


 23 26  0  0  0  0  0  0  0  0999 V2000
   -6.0414   29.3754    6.8095 C   0  0  0  0  0  0  0  0  0  0  0  0
   -7.0325   30.2919    7.1483 C   0  0  0  0  0  0  0  0  0  0  0  0
   -6.6974   31.4582    7.8410 C   0  0  0  0  0  0  0  0  0  0  0  0
   -5.3916   31.7465    8.2134 C   0  0  0  0  0  0  0  0  0  0  0  0
   -5.1669   32.8858    8.8854 N   0  0  0  0  0  0  0  0  0  0  0  0
   -3.9026   33.1595    9.2546 C   0  0  0  0  0  0  0  0  0  0  0  0
   -2.8234   32.3419    8.9804 C   0  0  0  0  0  0  0  0  0  0  0  0
   -3.0334   31.1510    8.2769 C   0  0  0  0  0  0  0  0  0  0  0  0
   -4.3651   30.8351    7.8779 C   0  0  0  0  0  0  0  0  0  0  0  0
   -4.7209   29.6525    7.1847 C   0  0  0  0  0  0  0  0  0  0  0  0
   -1.9501   30.2925    7.9423 N   0  0  0  0  0  0  0  0  0  0  0  0
   -0.9075   30.1405    8.9595 C   0  0  0  0  0  0  0  0  0  0  0  0
   -0.0741   28.8938    8.6557 C   0  0  0  0  0  0  0  0  0  0  0  0
    0.1215   28.6592    7.1459 C   0  0  0  0  0  0  0  0  0  0  0  0
   -0.0722   29.9563    6.3532 C   0  0  0  0  0  0  0  0  0  0  0  0
   -1.4582   30.5650    6.5746 C   0  0  0  0  0  0  0  0  0  0  0  0
   -0.6792   27.5759    6.5883 N   0  0  0  0  0  0  0  0  0  0  0  0
   -1.8120   26.9816    7.0590 C   0  0  0  0  0  0  0  0  0  0  0  0
   -2.1126   26.0352    6.1111 C   0  0  0  0  0  0  0  0  0  0  0  0
   -1.1799   26.0751    5.1170 N   0  0  0  0  0  0  0  0  0  0  0  0
   -0.3022   27.0227    5.4176 N   0  0  0  0  0  0  0  0  0  0  0  0
   -6.1732   28.2344    4.5792 C   0  0  0  0  0  0  0  0  0  0  0  0
   -6.3778   28.1008    6.0806 C   0  0  0  0  0  0  0  0  0  0  0  0
 22 23  1  0  0  0
 23  1  1  0  0  0
  1  2  2  0  0  0
  2  3  1  0  0  0
  3  4  2  0  0  0
  4  5  1  0  0  0
  5  6  2  0  0  0
  6  7  1  0  0  0
  7  8  2  0  0  0
  8 11  1  0  0  0
 11 12  1  0  0  0
 12 13  1  0  0  0
 13 14  1  0  0  0
 14 17  1  0  0  0
 17 18  1  0  0  0
 18 19  2  0  0  0
 19 20  1  0  0  0
 20 21  2  0  0  0
 14 15  1  0  0  0
 15 16  1  0  0  0
  8  9  1  0  0  0
  9 10  2  0  0  0
 10  1  1  0  0  0
  9  4  1  0  0  0
 16 11  1  0  0  0
 21 17  1  0  0  0
M  END
> <minimizedAffinity>
-8.59432

$$$$
OCNT-2315518


 25 27  0  0  0  0  0  0  0  0999 V2000
   -0.8821   27.4613    7.0281 C   0  0  0  0  0  0  0  0  0  0  0  0
   -1.1941   26.7847    5.7405 C   0  0  0  0  0  0  0  0  0  0  0  0
   -0.3668   26.1380    4.9473 N   0  0  0  0  0  0  0  0  0  0  0  0
   -1.0805   25.6959    3.8588 N   0  0  0  0  0  0  0  0  0  0  0  0
   -2.3305   26.0813    4.0017 C   0  0  0  0  0  0  0  0  0  0  0  0
   -2.4433   26.7672    5.1825 N   0  0  0  0  0  0  0  0  0  0  0  0
   -3.2766   27.1922    5.5605 H   0  0  0  0  0  0  0  0  0  0  0  0
   -3.4576   25.8357    3.0526 C   0  0  0  0  0  0  0  0  0  0  0  0
   -4.6851   26.6843    3.3828 C   0  0  0  0  0  0  0  0  0  0  0  0
   -5.7847   26.4602    2.3461 C   0  0  0  0  0  0  0  0  0  0  0  0
   -5.7294   25.1732    1.7298 O   0  0  0  0  0  0  0  0  0  0  0  0
   -5.2989   24.1475    2.6144 C   0  0  0  0  0  0  0  0  0  0  0  0
   -3.8311   24.3476    2.9785 C   0  0  0  0  0  0  0  0  0  0  0  0
    0.4336   28.1083    7.0364 N   0  0  0  0  0  0  0  0  0  0  0  0
    0.8605   27.9205    6.1247 H   0  0  0  0  0  0  0  0  0  0  0  0
    0.4119   29.5599    7.2369 C   0  0  0  0  0  0  0  0  0  0  0  0
   -3.1351   31.6038    8.7017 C   0  0  0  0  0  0  0  0  0  0  0  0
   -2.9561   31.5253    7.1716 C   0  0  0  0  0  0  0  0  0  0  0  0
   -1.5631   31.0545    6.7371 C   0  0  0  0  0  0  0  0  0  0  0  0
   -0.9201   30.1232    7.7718 C   0  0  0  0  0  0  0  0  0  0  0  0
   -0.7404   30.8560    9.1158 C   0  0  0  0  0  0  0  0  0  0  0  0
   -1.7979   31.9348    9.3772 C   0  0  0  0  0  0  0  0  0  0  0  0
   -5.6330   31.8174    9.1735 C   0  0  0  0  0  0  0  0  0  0  0  0
   -4.2840   32.5436    9.1583 C   0  0  0  0  0  0  0  0  0  0  0  0
   -4.4013   33.8378    8.3480 C   0  0  0  0  0  0  0  0  0  0  0  0
 23 24  1  0  0  0
 24 25  1  0  0  0
 24 17  1  0  0  0
 17 18  1  0  0  0
 18 19  1  0  0  0
 19 20  1  0  0  0
 20 16  1  0  0  0
 16 14  1  0  0  0
 14  1  1  0  0  0
  1  2  1  0  0  0
  2  3  2  0  0  0
  3  4  1  0  0  0
  4  5  2  0  0  0
  5  8  1  0  0  0
  8  9  1  0  0  0
  9 10  1  0  0  0
 10 11  1  0  0  0
 11 12  1  0  0  0
 12 13  1  0  0  0
  5  6  1  0  0  0
 20 21  1  0  0  0
 21 22  1  0  0  0
 22 17  1  0  0  0
  6  2  1  0  0  0
 13  8  1  0  0  0
 14 15  1  0  0  0
  6  7  1  0  0  0
M  END
> <minimizedAffinity>
-8.91682

$$$$
OCNT-2315525


 28 30  0  0  0  0  0  0  0  0999 V2000
   -6.1454   30.0749    5.9775 N   0  0  0  0  0  0  0  0  0  0  0  0
   -5.7799   30.1749    7.3016 C   0  0  0  0  0  0  0  0  0  0  0  0
   -5.4216   29.2662    8.0377 O   0  0  0  0  0  0  0  0  0  0  0  0
   -5.8859   31.4823    7.7383 N   0  0  0  0  0  0  0  0  0  0  0  0
   -6.6549   30.8655    5.6140 H   0  0  0  0  0  0  0  0  0  0  0  0
   -5.7429   32.1937    7.0372 H   0  0  0  0  0  0  0  0  0  0  0  0
   -5.9136   26.7496    3.3837 C   0  0  0  0  0  0  0  0  0  0  0  0
   -6.0060   26.5388    4.7627 C   0  0  0  0  0  0  0  0  0  0  0  0
   -6.0912   27.6247    5.6424 C   0  0  0  0  0  0  0  0  0  0  0  0
   -6.0775   28.9330    5.1555 C   0  0  0  0  0  0  0  0  0  0  0  0
   -5.9613   29.1409    3.7746 C   0  0  0  0  0  0  0  0  0  0  0  0
   -5.8801   28.0579    2.8910 C   0  0  0  0  0  0  0  0  0  0  0  0
   -5.6793   24.3403    3.0798 N   0  0  0  0  0  0  0  0  0  0  0  0
   -5.8254   25.5655    2.4888 C   0  0  0  0  0  0  0  0  0  0  0  0
   -5.8461   25.6741    1.2699 O   0  0  0  0  0  0  0  0  0  0  0  0
   -5.3495   24.2463    4.0294 H   0  0  0  0  0  0  0  0  0  0  0  0
   -5.4812   23.5760    2.4460 H   0  0  0  0  0  0  0  0  0  0  0  0
   -5.5076   31.8270    9.0996 C   0  0  0  0  0  0  0  0  0  0  0  0
   -4.0325   32.2691    9.2085 C   0  0  0  0  0  0  0  0  0  0  0  0
   -3.0297   31.4572    8.5029 N   0  0  0  0  0  0  0  0  0  0  0  0
   -2.6717   31.9902    7.1741 C   0  0  0  0  0  0  0  0  0  0  0  0
   -1.8754   30.9607    6.3407 C   0  0  0  0  0  0  0  0  0  0  0  0
   -0.8301   30.3267    7.1990 C   0  0  0  0  0  0  0  0  0  0  0  0
   -0.8197   30.4140    8.5773 C   0  0  0  0  0  0  0  0  0  0  0  0
    0.2790   29.6820    9.1252 C   0  0  0  0  0  0  0  0  0  0  0  0
    1.0410   29.0769    8.1477 C   0  0  0  0  0  0  0  0  0  0  0  0
    0.4396   29.3897    6.5748 S   0  0  0  0  0  0  0  0  0  0  0  0
   -1.8364   31.2159    9.3439 C   0  0  0  0  0  0  0  0  0  0  0  0
 13 14  1  0  0  0
 14 15  2  0  0  0
 14  7  1  0  0  0
  7  8  1  0  0  0
  8  9  2  0  0  0
  9 10  1  0  0  0
 10  1  1  0  0  0
  1  2  1  0  0  0
  2  3  2  0  0  0
  2  4  1  0  0  0
  4 18  1  0  0  0
 18 19  1  0  0  0
 19 20  1  0  0  0
 20 21  1  0  0  0
 21 22  1  0  0  0
 22 23  1  0  0  0
 23 24  2  0  0  0
 24 25  1  0  0  0
 25 26  2  0  0  0
 26 27  1  0  0  0
 24 28  1  0  0  0
 10 11  2  0  0  0
 11 12  1  0  0  0
 12  7  2  0  0  0
 28 20  1  0  0  0
 27 23  1  0  0  0
 13 16  1  0  0  0
 13 17  1  0  0  0
  1  5  1  0  0  0
  4  6  1  0  0  0
M  END
> <minimizedAffinity>
-9.10841

$$$$
OCNT-2315532


 30 33  0  0  0  0  0  0  0  0999 V2000
   -0.9188   27.4744    6.1876 C   0  0  0  0  0  0  0  0  0  0  0  0
    0.0981   28.2959    6.6351 C   0  0  0  0  0  0  0  0  0  0  0  0
   -0.0763   29.2924    7.5302 N   0  0  0  0  0  0  0  0  0  0  0  0
   -1.3087   29.5227    8.0223 C   0  0  0  0  0  0  0  0  0  0  0  0
   -1.5105   30.5540    8.9422 C   0  0  0  0  0  0  0  0  0  0  0  0
   -0.4686   31.3065    9.3353 F   0  0  0  0  0  0  0  0  0  0  0  0
   -2.7637   30.8356    9.4689 C   0  0  0  0  0  0  0  0  0  0  0  0
   -2.9172   31.8355   10.3479 F   0  0  0  0  0  0  0  0  0  0  0  0
   -3.8530   30.0832    9.0780 C   0  0  0  0  0  0  0  0  0  0  0  0
   -5.0716   30.3449    9.5674 F   0  0  0  0  0  0  0  0  0  0  0  0
   -3.6946   29.0471    8.1670 C   0  0  0  0  0  0  0  0  0  0  0  0
   -2.4232   28.7410    7.6283 C   0  0  0  0  0  0  0  0  0  0  0  0
   -2.2152   27.6916    6.6853 C   0  0  0  0  0  0  0  0  0  0  0  0
   -0.3300   25.6311    4.4701 N   0  0  0  0  0  0  0  0  0  0  0  0
   -0.6125   26.4504    5.2409 C   0  0  0  0  0  0  0  0  0  0  0  0
   -3.3084   26.8355    6.3325 N   0  0  0  0  0  0  0  0  0  0  0  0
   -3.8901   26.6490    7.1557 H   0  0  0  0  0  0  0  0  0  0  0  0
   -4.1832   27.4552    5.3060 C   0  0  0  0  0  0  0  0  0  0  0  0
   -4.2267   26.6901    4.0309 C   0  0  0  0  0  0  0  0  0  0  0  0
   -3.2317   26.4118    3.2204 N   0  0  0  0  0  0  0  0  0  0  0  0
   -3.7372   25.6752    2.1760 N   0  0  0  0  0  0  0  0  0  0  0  0
   -5.0355   25.5089    2.3575 C   0  0  0  0  0  0  0  0  0  0  0  0
   -5.3739   26.1391    3.5273 N   0  0  0  0  0  0  0  0  0  0  0  0
   -6.2887   26.2144    3.9446 H   0  0  0  0  0  0  0  0  0  0  0  0
   -5.9549   24.7893    1.4760 C   0  0  0  0  0  0  0  0  0  0  0  0
   -6.2313   25.3118    0.2084 C   0  0  0  0  0  0  0  0  0  0  0  0
   -7.1019   24.6291   -0.6239 C   0  0  0  0  0  0  0  0  0  0  0  0
   -7.7088   23.4740   -0.2835 N   0  0  0  0  0  0  0  0  0  0  0  0
   -7.4320   22.9818    0.9402 C   0  0  0  0  0  0  0  0  0  0  0  0
   -6.5749   23.5919    1.8443 C   0  0  0  0  0  0  0  0  0  0  0  0
 14 15  3  0  0  0
 15  1  1  0  0  0
  1  2  1  0  0  0
  2  3  2  0  0  0
  3  4  1  0  0  0
  4  5  2  0  0  0
  5  6  1  0  0  0
  5  7  1  0  0  0
  7  8  1  0  0  0
  7  9  2  0  0  0
  9 10  1  0  0  0
  9 11  1  0  0  0
 11 12  2  0  0  0
 12 13  1  0  0  0
 13 16  1  0  0  0
 16 18  1  0  0  0
 18 19  1  0  0  0
 19 20  2  0  0  0
 20 21  1  0  0  0
 21 22  2  0  0  0
 22 25  1  0  0  0
 25 26  2  0  0  0
 26 27  1  0  0  0
 27 28  2  0  0  0
 28 29  1  0  0  0
 29 30  2  0  0  0
 22 23  1  0  0  0
 13  1  2  0  0  0
 23 19  1  0  0  0
 12  4  1  0  0  0
 30 25  1  0  0  0
 16 17  1  0  0  0
 23 24  1  0  0  0
M  END
> <minimizedAffinity>
-9.99957

$$$$
OCNT-2315535


 28 30  0  0  0  0  0  0  0  0999 V2000
   -2.8559   28.3995    6.7899 N   0  0  0  0  0  0  0  0  0  0  0  0
   -4.1079   28.5335    6.2570 C   0  0  0  0  0  0  0  0  0  0  0  0
   -5.0530   29.0536    6.8323 O   0  0  0  0  0  0  0  0  0  0  0  0
   -4.1680   28.0010    4.9968 N   0  0  0  0  0  0  0  0  0  0  0  0
   -2.0923   28.4333    6.1245 H   0  0  0  0  0  0  0  0  0  0  0  0
   -3.5276   27.2349    4.8474 H   0  0  0  0  0  0  0  0  0  0  0  0
   -2.5307   29.0227    8.0632 C   0  0  0  0  0  0  0  0  0  0  0  0
   -1.3227   30.0197    7.9251 C   0  0  0  0  0  0  0  0  0  0  0  0
   -1.2056   30.8288    9.2533 C   0  0  0  0  0  0  0  0  0  0  0  0
   -2.3752   31.7843    9.4688 C   0  0  0  0  0  0  0  0  0  0  0  0
   -2.5070   32.6654    8.3563 O   0  0  0  0  0  0  0  0  0  0  0  0
   -2.7715   31.9745    7.1401 C   0  0  0  0  0  0  0  0  0  0  0  0
   -1.6256   31.0296    6.7869 C   0  0  0  0  0  0  0  0  0  0  0  0
    0.9368   29.2563    8.7210 C   0  0  0  0  0  0  0  0  0  0  0  0
   -0.0859   29.1829    7.6729 N   0  0  0  0  0  0  0  0  0  0  0  0
    0.5530   29.4396    6.3744 C   0  0  0  0  0  0  0  0  0  0  0  0
   -5.4439   27.9221    4.3271 C   0  0  0  0  0  0  0  0  0  0  0  0
   -5.7843   26.4938    4.0011 C   0  0  0  0  0  0  0  0  0  0  0  0
   -5.6898   26.0131    2.6944 C   0  0  0  0  0  0  0  0  0  0  0  0
   -6.0335   24.6955    2.4494 C   0  0  0  0  0  0  0  0  0  0  0  0
   -6.4632   23.8423    3.4031 N   0  0  0  0  0  0  0  0  0  0  0  0
   -6.5577   24.3138    4.6735 C   0  0  0  0  0  0  0  0  0  0  0  0
   -6.2302   25.6253    5.0080 C   0  0  0  0  0  0  0  0  0  0  0  0
   -7.0148   23.4083    5.6700 N   0  0  0  0  0  0  0  0  0  0  0  0
   -8.3010   23.1671    6.1022 C   0  0  0  0  0  0  0  0  0  0  0  0
   -8.1944   22.2011    7.0763 C   0  0  0  0  0  0  0  0  0  0  0  0
   -6.8912   21.8364    7.2616 N   0  0  0  0  0  0  0  0  0  0  0  0
   -6.2084   22.5729    6.4115 C   0  0  0  0  0  0  0  0  0  0  0  0
 14 15  1  0  0  0
 15 16  1  0  0  0
 15  8  1  0  0  0
  8  7  1  0  0  0
  7  1  1  0  0  0
  1  2  1  0  0  0
  2  3  2  0  0  0
  2  4  1  0  0  0
  4 17  1  0  0  0
 17 18  1  0  0  0
 18 19  2  0  0  0
 19 20  1  0  0  0
 20 21  2  0  0  0
 21 22  1  0  0  0
 22 24  1  0  0  0
 24 25  1  0  0  0
 25 26  2  0  0  0
 26 27  1  0  0  0
 27 28  2  0  0  0
 22 23  2  0  0  0
  8  9  1  0  0  0
  9 10  1  0  0  0
 10 11  1  0  0  0
 11 12  1  0  0  0
 12 13  1  0  0  0
 13  8  1  0  0  0
 23 18  1  0  0  0
 28 24  1  0  0  0
  1  5  1  0  0  0
  4  6  1  0  0  0
M  END
> <minimizedAffinity>
-8.58528

$$$$
OCNT-2315537


 24 27  0  0  0  0  0  0  0  0999 V2000
   -4.4461   28.4664    7.3924 N   0  0  0  0  0  0  0  0  0  0  0  0
   -4.1572   27.6708    7.9614 H   0  0  0  0  0  0  0  0  0  0  0  0
   -3.8113   29.5702    7.9657 C   0  0  0  0  0  0  0  0  0  0  0  0
   -4.6261   30.6171    8.1891 N   0  0  0  0  0  0  0  0  0  0  0  0
   -4.1064   31.7622    8.6985 C   0  0  0  0  0  0  0  0  0  0  0  0
   -2.8030   31.9183    8.9974 N   0  0  0  0  0  0  0  0  0  0  0  0
   -2.0332   30.8526    8.7645 C   0  0  0  0  0  0  0  0  0  0  0  0
   -2.4791   29.6474    8.2617 C   0  0  0  0  0  0  0  0  0  0  0  0
   -1.3448   28.7004    8.0763 C   0  0  0  0  0  0  0  0  0  0  0  0
   -0.2497   29.3514    8.9362 C   0  0  0  0  0  0  0  0  0  0  0  0
   -0.5436   30.8527    8.9533 C   0  0  0  0  0  0  0  0  0  0  0  0
   -5.0431   32.9192    8.9479 C   0  0  0  0  0  0  0  0  0  0  0  0
   -4.4918   34.2893    9.2739 C   0  0  0  0  0  0  0  0  0  0  0  0
   -5.1413   34.0466    7.9442 C   0  0  0  0  0  0  0  0  0  0  0  0
   -4.9500   26.4695    4.7453 N   0  0  0  0  0  0  0  0  0  0  0  0
   -5.8041   27.3334    5.6327 C   0  0  0  0  0  0  0  0  0  0  0  0
   -4.5713   28.1941    5.9908 C   0  0  0  0  0  0  0  0  0  0  0  0
   -3.7496   26.9827    5.4962 C   0  0  0  0  0  0  0  0  0  0  0  0
   -5.0186   26.5135    3.0554 S   0  0  0  0  0  0  0  0  0  0  0  0
   -3.6725   26.3508    2.5557 O   0  0  0  0  0  0  0  0  0  0  0  0
   -5.8319   27.6397    2.6584 O   0  0  0  0  0  0  0  0  0  0  0  0
   -5.9328   24.6741    1.3217 C   0  0  0  0  0  0  0  0  0  0  0  0
   -5.8785   25.0891    2.7360 N   0  0  0  0  0  0  0  0  0  0  0  0
   -5.4930   23.9670    3.6188 C   0  0  0  0  0  0  0  0  0  0  0  0
 22 23  1  0  0  0
 23 24  1  0  0  0
 23 19  1  0  0  0
 19 20  2  0  0  0
 19 21  2  0  0  0
 19 15  1  0  0  0
 15 16  1  0  0  0
 16 17  1  0  0  0
 17  1  1  0  0  0
  1  3  1  0  0  0
  3  4  1  0  0  0
  4  5  2  0  0  0
  5 12  1  0  0  0
 12 13  1  0  0  0
 13 14  1  0  0  0
  5  6  1  0  0  0
  6  7  2  0  0  0
  7  8  1  0  0  0
  8  9  1  0  0  0
  9 10  1  0  0  0
 10 11  1  0  0  0
 17 18  1  0  0  0
 18 15  1  0  0  0
  8  3  2  0  0  0
 14 12  1  0  0  0
 11  7  1  0  0  0
  1  2  1  0  0  0
M  END
> <minimizedAffinity>
-8.22578

$$$$
OCNT-2315539


 26 29  0  0  0  0  0  0  0  0999 V2000
   -5.8016   26.0194    5.6765 O   0  0  0  0  0  0  0  0  0  0  0  0
   -4.9663   25.2804    4.7985 C   0  0  0  0  0  0  0  0  0  0  0  0
   -5.6840   24.9091    3.4998 C   0  0  0  0  0  0  0  0  0  0  0  0
   -4.6648   25.1530    2.3743 C   0  0  0  0  0  0  0  0  0  0  0  0
   -3.3227   25.3446    3.0872 C   0  0  0  0  0  0  0  0  0  0  0  0
   -3.7133   26.0743    4.3681 C   0  0  0  0  0  0  0  0  0  0  0  0
   -6.0781   26.8386    5.2302 H   0  0  0  0  0  0  0  0  0  0  0  0
   -2.6772   25.9844    5.4031 N   0  0  0  0  0  0  0  0  0  0  0  0
   -2.9429   25.2439    6.0630 H   0  0  0  0  0  0  0  0  0  0  0  0
   -2.5990   27.1153    6.2279 C   0  0  0  0  0  0  0  0  0  0  0  0
   -1.6316   27.2486    7.2101 C   0  0  0  0  0  0  0  0  0  0  0  0
   -1.6081   28.3938    8.0083 C   0  0  0  0  0  0  0  0  0  0  0  0
   -2.5673   29.3705    7.7919 C   0  0  0  0  0  0  0  0  0  0  0  0
   -3.5065   29.2157    6.8340 N   0  0  0  0  0  0  0  0  0  0  0  0
   -3.5231   28.0785    6.0584 N   0  0  0  0  0  0  0  0  0  0  0  0
   -2.6039   30.5596    8.5621 N   0  0  0  0  0  0  0  0  0  0  0  0
   -3.6376   31.4722    8.5896 C   0  0  0  0  0  0  0  0  0  0  0  0
   -3.2481   32.4604    9.4605 C   0  0  0  0  0  0  0  0  0  0  0  0
   -2.0092   32.1920    9.9729 N   0  0  0  0  0  0  0  0  0  0  0  0
   -1.6493   31.0529    9.4215 C   0  0  0  0  0  0  0  0  0  0  0  0
   -4.6148   24.0430    1.3239 C   0  0  0  0  0  0  0  0  0  0  0  0
   -5.8431   23.9385    0.5578 N   0  0  0  0  0  0  0  0  0  0  0  0
   -6.6235   22.8296    0.4030 C   0  0  0  0  0  0  0  0  0  0  0  0
   -7.6702   23.2123   -0.4026 C   0  0  0  0  0  0  0  0  0  0  0  0
   -7.4274   24.5694   -0.6818 C   0  0  0  0  0  0  0  0  0  0  0  0
   -6.3132   25.0169   -0.0972 N   0  0  0  0  0  0  0  0  0  0  0  0
  1  2  1  0  0  0
  2  3  1  0  0  0
  3  4  1  0  0  0
  4 21  1  0  0  0
 21 22  1  0  0  0
 22 23  1  0  0  0
 23 24  2  0  0  0
 24 25  1  0  0  0
 25 26  2  0  0  0
  4  5  1  0  0  0
  5  6  1  0  0  0
  6  8  1  0  0  0
  8 10  1  0  0  0
 10 11  2  0  0  0
 11 12  1  0  0  0
 12 13  2  0  0  0
 13 16  1  0  0  0
 16 17  1  0  0  0
 17 18  2  0  0  0
 18 19  1  0  0  0
 19 20  2  0  0  0
 13 14  1  0  0  0
 14 15  2  0  0  0
  6  2  1  0  0  0
 15 10  1  0  0  0
 26 22  1  0  0  0
 20 16  1  0  0  0
  1  7  1  0  0  0
  8  9  1  0  0  0
M  END
> <minimizedAffinity>
-8.49696

$$$$
OCNT-2315542


 34 37  0  0  0  0  0  0  0  0999 V2000
   -4.2621   31.2194    5.9257 N   0  0  0  0  0  0  0  0  0  0  0  0
   -5.2845   30.2958    5.8005 C   0  0  0  0  0  0  0  0  0  0  0  0
   -6.1819   30.0872    6.6063 O   0  0  0  0  0  0  0  0  0  0  0  0
   -5.1893   29.6266    4.5955 N   0  0  0  0  0  0  0  0  0  0  0  0
   -3.7077   31.3806    5.1007 H   0  0  0  0  0  0  0  0  0  0  0  0
   -4.2588   29.5110    4.2250 H   0  0  0  0  0  0  0  0  0  0  0  0
   -4.6400   34.3651    9.8125 C   0  0  0  0  0  0  0  0  0  0  0  0
   -4.1987   33.3690    8.8079 C   0  0  0  0  0  0  0  0  0  0  0  0
   -3.0021   32.7834    8.9097 N   0  0  0  0  0  0  0  0  0  0  0  0
   -2.9387   31.9685    7.8381 N   0  0  0  0  0  0  0  0  0  0  0  0
   -4.0753   31.9948    7.0592 C   0  0  0  0  0  0  0  0  0  0  0  0
   -4.9013   32.9127    7.6732 C   0  0  0  0  0  0  0  0  0  0  0  0
   -1.7425   31.1713    7.6632 C   0  0  0  0  0  0  0  0  0  0  0  0
   -1.0238   30.8250    8.9792 C   0  0  0  0  0  0  0  0  0  0  0  0
    0.0919   29.8587    8.6047 C   0  0  0  0  0  0  0  0  0  0  0  0
   -0.5363   28.9171    7.2210 S   0  0  0  0  0  0  0  0  0  0  0  0
   -0.8593   27.5776    7.6601 O   0  0  0  0  0  0  0  0  0  0  0  0
    0.3178   29.1759    6.0789 O   0  0  0  0  0  0  0  0  0  0  0  0
   -2.0398   29.8368    6.9914 C   0  0  0  0  0  0  0  0  0  0  0  0
   -6.1111   28.5560    4.2768 C   0  0  0  0  0  0  0  0  0  0  0  0
   -5.3688   27.2742    3.9989 C   0  0  0  0  0  0  0  0  0  0  0  0
   -4.6803   26.6154    5.0283 C   0  0  0  0  0  0  0  0  0  0  0  0
   -3.9528   25.4531    4.7666 C   0  0  0  0  0  0  0  0  0  0  0  0
   -3.9073   24.9335    3.4736 C   0  0  0  0  0  0  0  0  0  0  0  0
   -4.6046   25.5723    2.4465 C   0  0  0  0  0  0  0  0  0  0  0  0
   -5.3132   26.7480    2.7004 C   0  0  0  0  0  0  0  0  0  0  0  0
   -4.5724   25.1367    1.1412 O   0  0  0  0  0  0  0  0  0  0  0  0
   -5.5722   24.2825    0.7349 C   0  0  0  0  0  0  0  0  0  0  0  0
   -5.6267   22.9430    1.1335 C   0  0  0  0  0  0  0  0  0  0  0  0
   -6.6903   22.1371    0.7168 C   0  0  0  0  0  0  0  0  0  0  0  0
   -7.7051   22.6697   -0.0820 C   0  0  0  0  0  0  0  0  0  0  0  0
   -7.6623   24.0120   -0.4601 C   0  0  0  0  0  0  0  0  0  0  0  0
   -6.6012   24.8113   -0.0435 C   0  0  0  0  0  0  0  0  0  0  0  0
   -6.5766   26.1010   -0.4116 F   0  0  0  0  0  0  0  0  0  0  0  0
  7  8  1  0  0  0
  8  9  2  0  0  0
  9 10  1  0  0  0
 10 13  1  0  0  0
 13 14  1  0  0  0
 14 15  1  0  0  0
 15 16  1  0  0  0
 16 17  2  0  0  0
 16 18  2  0  0  0
 16 19  1  0  0  0
 10 11  1  0  0  0
 11  1  1  0  0  0
  1  2  1  0  0  0
  2  3  2  0  0  0
  2  4  1  0  0  0
  4 20  1  0  0  0
 20 21  1  0  0  0
 21 22  2  0  0  0
 22 23  1  0  0  0
 23 24  2  0  0  0
 24 25  1  0  0  0
 25 27  1  0  0  0
 27 28  1  0  0  0
 28 29  2  0  0  0
 29 30  1  0  0  0
 30 31  2  0  0  0
 31 32  1  0  0  0
 32 33  2  0  0  0
 33 34  1  0  0  0
 25 26  2  0  0  0
 11 12  2  0  0  0
 12  8  1  0  0  0
 19 13  1  0  0  0
 26 21  1  0  0  0
 33 28  1  0  0  0
  1  5  1  0  0  0
  4  6  1  0  0  0
M  END
> <minimizedAffinity>
-11.88521

$$$$
OCNT-2315548


 26 27  0  0  0  0  0  0  0  0999 V2000
   -4.4024   27.6290    6.1518 N   0  0  0  0  0  0  0  0  0  0  0  0
   -5.6440   27.5443    5.5152 C   0  0  0  0  0  0  0  0  0  0  0  0
   -6.6211   28.2250    5.8171 O   0  0  0  0  0  0  0  0  0  0  0  0
   -5.8168   26.5684    4.4175 C   0  0  0  0  0  0  0  0  0  0  0  0
   -5.5977   26.9557    3.0883 C   0  0  0  0  0  0  0  0  0  0  0  0
   -5.7252   26.0153    2.0661 C   0  0  0  0  0  0  0  0  0  0  0  0
   -6.0524   24.6976    2.3803 C   0  0  0  0  0  0  0  0  0  0  0  0
   -6.1727   23.8113    1.3810 F   0  0  0  0  0  0  0  0  0  0  0  0
   -6.2449   24.3064    3.7062 C   0  0  0  0  0  0  0  0  0  0  0  0
   -6.6393   22.6751    4.0898 Cl  0  0  0  0  0  0  0  0  0  0  0  0
   -6.1188   25.2395    4.7336 C   0  0  0  0  0  0  0  0  0  0  0  0
   -2.5678   25.9964    5.7825 C   0  0  0  0  0  0  0  0  0  0  0  0
   -3.1437   27.3643    5.4425 C   0  0  0  0  0  0  0  0  0  0  0  0
   -4.3543   28.4542    7.3634 C   0  0  0  0  0  0  0  0  0  0  0  0
   -3.1671   29.3975    7.4204 C   0  0  0  0  0  0  0  0  0  0  0  0
   -1.9707   28.9703    8.0267 C   0  0  0  0  0  0  0  0  0  0  0  0
   -1.9338   27.7084    8.5568 O   0  0  0  0  0  0  0  0  0  0  0  0
   -0.8696   29.8294    8.0752 C   0  0  0  0  0  0  0  0  0  0  0  0
    0.4363   29.4221    8.6889 C   0  0  0  0  0  0  0  0  0  0  0  0
   -0.9132   31.0819    7.5709 N   0  0  0  0  0  0  0  0  0  0  0  0
   -2.0744   31.4891    7.0083 C   0  0  0  0  0  0  0  0  0  0  0  0
   -3.2250   30.7096    6.9006 C   0  0  0  0  0  0  0  0  0  0  0  0
   -1.1555   27.6110    9.1274 H   0  0  0  0  0  0  0  0  0  0  0  0
   -4.4736   31.2706    6.2726 C   0  0  0  0  0  0  0  0  0  0  0  0
   -4.6055   30.9044    4.9053 O   0  0  0  0  0  0  0  0  0  0  0  0
   -5.4072   31.3424    4.5720 H   0  0  0  0  0  0  0  0  0  0  0  0
 12 13  1  0  0  0
 13  1  1  0  0  0
  1 14  1  0  0  0
 14 15  1  0  0  0
 15 16  1  0  0  0
 16 17  1  0  0  0
 16 18  2  0  0  0
 18 19  1  0  0  0
 18 20  1  0  0  0
 20 21  2  0  0  0
 21 22  1  0  0  0
 22 24  1  0  0  0
 24 25  1  0  0  0
  1  2  1  0  0  0
  2  3  2  0  0  0
  2  4  1  0  0  0
  4  5  1  0  0  0
  5  6  2  0  0  0
  6  7  1  0  0  0
  7  8  1  0  0  0
  7  9  2  0  0  0
  9 10  1  0  0  0
  9 11  1  0  0  0
 22 15  2  0  0  0
 11  4  2  0  0  0
 17 23  1  0  0  0
 25 26  1  0  0  0
M  END
> <minimizedAffinity>
-8.13967

$$$$
OCNT-2315554


 28 31  0  0  0  0  0  0  0  0999 V2000
   -2.7149   31.4801    9.9369 O   0  0  0  0  0  0  0  0  0  0  0  0
   -2.8829   30.4050    9.3699 C   0  0  0  0  0  0  0  0  0  0  0  0
   -4.0886   29.7529    9.3749 N   0  0  0  0  0  0  0  0  0  0  0  0
   -1.8663   29.7337    8.6907 N   0  0  0  0  0  0  0  0  0  0  0  0
   -0.5689   30.4106    8.6722 C   0  0  0  0  0  0  0  0  0  0  0  0
    0.5802   29.4498    8.3832 C   0  0  0  0  0  0  0  0  0  0  0  0
    0.3322   28.6502    7.1078 C   0  0  0  0  0  0  0  0  0  0  0  0
   -1.0148   27.9214    7.1953 C   0  0  0  0  0  0  0  0  0  0  0  0
   -2.1540   28.9024    7.5114 C   0  0  0  0  0  0  0  0  0  0  0  0
   -4.0373   28.7463    9.3527 H   0  0  0  0  0  0  0  0  0  0  0  0
   -1.2948   27.1361    6.0033 N   0  0  0  0  0  0  0  0  0  0  0  0
   -2.5218   26.7593    5.5313 C   0  0  0  0  0  0  0  0  0  0  0  0
   -2.2574   26.0221    4.4007 C   0  0  0  0  0  0  0  0  0  0  0  0
   -0.9081   25.9427    4.1781 N   0  0  0  0  0  0  0  0  0  0  0  0
   -0.3538   26.6254    5.1536 C   0  0  0  0  0  0  0  0  0  0  0  0
   -5.2623   30.3234   10.0100 C   0  0  0  0  0  0  0  0  0  0  0  0
   -6.5382   30.2333    9.1733 C   0  0  0  0  0  0  0  0  0  0  0  0
   -6.3911   30.8800    7.7971 C   0  0  0  0  0  0  0  0  0  0  0  0
   -6.2610   29.8572    6.7215 C   0  0  0  0  0  0  0  0  0  0  0  0
   -6.2303   28.5507    6.8816 N   0  0  0  0  0  0  0  0  0  0  0  0
   -6.1057   28.0265    5.6178 C   0  0  0  0  0  0  0  0  0  0  0  0
   -6.0231   26.6892    5.2044 C   0  0  0  0  0  0  0  0  0  0  0  0
   -5.8971   26.4155    3.8362 C   0  0  0  0  0  0  0  0  0  0  0  0
   -5.8541   27.4521    2.9001 C   0  0  0  0  0  0  0  0  0  0  0  0
   -5.9353   28.7931    3.2941 C   0  0  0  0  0  0  0  0  0  0  0  0
   -6.0612   29.0362    4.6635 C   0  0  0  0  0  0  0  0  0  0  0  0
   -6.1641   30.1926    5.3921 N   0  0  0  0  0  0  0  0  0  0  0  0
   -6.1557   31.1314    5.0200 H   0  0  0  0  0  0  0  0  0  0  0  0
  1  2  2  0  0  0
  2  3  1  0  0  0
  3 16  1  0  0  0
 16 17  1  0  0  0
 17 18  1  0  0  0
 18 19  1  0  0  0
 19 20  2  0  0  0
 20 21  1  0  0  0
 21 22  2  0  0  0
 22 23  1  0  0  0
 23 24  2  0  0  0
 24 25  1  0  0  0
 25 26  2  0  0  0
 26 27  1  0  0  0
  2  4  1  0  0  0
  4  5  1  0  0  0
  5  6  1  0  0  0
  6  7  1  0  0  0
  7  8  1  0  0  0
  8 11  1  0  0  0
 11 12  1  0  0  0
 12 13  2  0  0  0
 13 14  1  0  0  0
 14 15  2  0  0  0
  8  9  1  0  0  0
 27 19  1  0  0  0
  9  4  1  0  0  0
 26 21  1  0  0  0
 15 11  1  0  0  0
  3 10  1  0  0  0
 27 28  1  0  0  0
M  END
> <minimizedAffinity>
-9.78487

$$$$
OCNT-2315568


 22 24  0  0  0  0  0  0  0  0999 V2000
   -3.2429   27.3136    5.8375 N   0  0  0  0  0  0  0  0  0  0  0  0
   -3.5704   28.5033    6.4394 C   0  0  0  0  0  0  0  0  0  0  0  0
   -2.6719   28.6462    7.4775 C   0  0  0  0  0  0  0  0  0  0  0  0
   -1.8501   27.5513    7.4944 N   0  0  0  0  0  0  0  0  0  0  0  0
   -2.1971   26.7539    6.4943 N   0  0  0  0  0  0  0  0  0  0  0  0
   -2.5494   29.7378    8.5008 C   0  0  0  0  0  0  0  0  0  0  0  0
   -1.1170   30.2960    8.6060 C   0  0  0  0  0  0  0  0  0  0  0  0
   -1.0471   31.6441    9.3306 C   0  0  0  0  0  0  0  0  0  0  0  0
   -2.3205   31.9186   10.1168 C   0  0  0  0  0  0  0  0  0  0  0  0
   -3.5543   31.8401    9.2131 C   0  0  0  0  0  0  0  0  0  0  0  0
   -3.4866   30.8225    8.1583 N   0  0  0  0  0  0  0  0  0  0  0  0
   -3.1484   31.2609    7.3003 H   0  0  0  0  0  0  0  0  0  0  0  0
   -4.9936   25.4262    2.4694 C   0  0  0  0  0  0  0  0  0  0  0  0
   -5.6625   26.4711    3.1252 C   0  0  0  0  0  0  0  0  0  0  0  0
   -5.0923   27.1021    4.2366 C   0  0  0  0  0  0  0  0  0  0  0  0
   -3.8414   26.6885    4.7125 C   0  0  0  0  0  0  0  0  0  0  0  0
   -3.1714   25.6386    4.0667 C   0  0  0  0  0  0  0  0  0  0  0  0
   -3.7461   25.0120    2.9569 C   0  0  0  0  0  0  0  0  0  0  0  0
   -4.8885   23.6747    0.8525 F   0  0  0  0  0  0  0  0  0  0  0  0
   -5.6249   24.7348    1.2849 C   0  0  0  0  0  0  0  0  0  0  0  0
   -6.8662   24.2423    1.5557 F   0  0  0  0  0  0  0  0  0  0  0  0
   -5.7776   25.5513    0.2054 F   0  0  0  0  0  0  0  0  0  0  0  0
 19 20  1  0  0  0
 20 21  1  0  0  0
 20 22  1  0  0  0
 20 13  1  0  0  0
 13 14  1  0  0  0
 14 15  2  0  0  0
 15 16  1  0  0  0
 16  1  1  0  0  0
  1  2  1  0  0  0
  2  3  2  0  0  0
  3  6  1  0  0  0
  6  7  1  0  0  0
  7  8  1  0  0  0
  8  9  1  0  0  0
  9 10  1  0  0  0
 10 11  1  0  0  0
  3  4  1  0  0  0
  4  5  2  0  0  0
 16 17  2  0  0  0
 17 18  1  0  0  0
 18 13  2  0  0  0
  5  1  1  0  0  0
 11  6  1  0  0  0
 11 12  1  0  0  0
M  END
> <minimizedAffinity>
-8.86619

$$$$
OCNT-2315569


 22 24  0  0  0  0  0  0  0  0999 V2000
   -2.3009   26.2610    4.9930 C   0  0  0  0  0  0  0  0  0  0  0  0
   -2.4733   25.9656    3.4863 C   0  0  0  0  0  0  0  0  0  0  0  0
   -3.8755   25.7352    3.0751 N   0  0  0  0  0  0  0  0  0  0  0  0
   -4.6999   26.8522    3.5868 C   0  0  0  0  0  0  0  0  0  0  0  0
   -4.4977   27.1465    5.0820 C   0  0  0  0  0  0  0  0  0  0  0  0
   -3.1178   27.3835    5.3905 O   0  0  0  0  0  0  0  0  0  0  0  0
   -0.8383   26.6005    5.3051 C   0  0  0  0  0  0  0  0  0  0  0  0
   -0.1961   28.8542    8.2788 C   0  0  0  0  0  0  0  0  0  0  0  0
   -0.0880   28.3515    6.8643 C   0  0  0  0  0  0  0  0  0  0  0  0
    0.5000   28.9811    5.9914 O   0  0  0  0  0  0  0  0  0  0  0  0
   -0.7002   27.1397    6.6487 N   0  0  0  0  0  0  0  0  0  0  0  0
   -1.3993   26.8301    7.3149 H   0  0  0  0  0  0  0  0  0  0  0  0
   -4.3569   24.4153    3.5077 C   0  0  0  0  0  0  0  0  0  0  0  0
   -5.1636   23.7429    2.4502 C   0  0  0  0  0  0  0  0  0  0  0  0
   -5.8236   24.2365    1.3546 C   0  0  0  0  0  0  0  0  0  0  0  0
   -6.1255   25.4987    0.6601 C   0  0  0  0  0  0  0  0  0  0  0  0
   -6.7148   24.9834   -0.6988 C   0  0  0  0  0  0  0  0  0  0  0  0
   -7.1681   23.4994   -0.4781 C   0  0  0  0  0  0  0  0  0  0  0  0
   -6.4000   23.1395    0.7258 C   0  0  0  0  0  0  0  0  0  0  0  0
   -6.1525   21.9879    1.3293 N   0  0  0  0  0  0  0  0  0  0  0  0
   -5.3773   22.3741    2.3803 N   0  0  0  0  0  0  0  0  0  0  0  0
   -4.8790   21.3642    3.2847 C   0  0  0  0  0  0  0  0  0  0  0  0
  8  9  1  0  0  0
  9 10  2  0  0  0
  9 11  1  0  0  0
 11  7  1  0  0  0
  7  1  1  0  0  0
  1  2  1  0  0  0
  2  3  1  0  0  0
  3 13  1  0  0  0
 13 14  1  0  0  0
 14 15  2  0  0  0
 15 16  1  0  0  0
 16 17  1  0  0  0
 17 18  1  0  0  0
 18 19  1  0  0  0
 19 20  2  0  0  0
 20 21  1  0  0  0
 21 22  1  0  0  0
  3  4  1  0  0  0
  4  5  1  0  0  0
  5  6  1  0  0  0
  6  1  1  0  0  0
 21 14  1  0  0  0
 19 15  1  0  0  0
 11 12  1  0  0  0
M  END
> <minimizedAffinity>
-8.28443

$$$$
OCNT-2315573


 25 27  0  0  0  0  0  0  0  0999 V2000
   -3.7506   27.2571    5.9182 N   0  0  0  0  0  0  0  0  0  0  0  0
   -5.1058   27.6349    5.4599 C   0  0  0  0  0  0  0  0  0  0  0  0
   -5.8423   26.4158    4.8647 C   0  0  0  0  0  0  0  0  0  0  0  0
   -5.0652   25.7880    3.7569 N   0  0  0  0  0  0  0  0  0  0  0  0
   -3.6887   25.4374    4.2055 C   0  0  0  0  0  0  0  0  0  0  0  0
   -2.9521   26.6474    4.8245 C   0  0  0  0  0  0  0  0  0  0  0  0
   -5.7282   25.0559    2.7670 C   0  0  0  0  0  0  0  0  0  0  0  0
   -6.3405   23.8824    2.9810 C   0  0  0  0  0  0  0  0  0  0  0  0
   -7.0108   23.1573    1.8847 C   0  0  0  0  0  0  0  0  0  0  0  0
   -7.5095   22.0590    2.1221 O   0  0  0  0  0  0  0  0  0  0  0  0
   -7.0207   23.7760    0.6542 N   0  0  0  0  0  0  0  0  0  0  0  0
   -7.6558   23.1025   -0.4591 C   0  0  0  0  0  0  0  0  0  0  0  0
   -6.3333   24.9446    0.4085 C   0  0  0  0  0  0  0  0  0  0  0  0
   -6.2240   25.4633   -0.7018 O   0  0  0  0  0  0  0  0  0  0  0  0
   -5.7399   25.5326    1.4880 N   0  0  0  0  0  0  0  0  0  0  0  0
   -5.2108   26.3658    1.2795 H   0  0  0  0  0  0  0  0  0  0  0  0
   -1.6674   30.1407    8.2645 C   0  0  0  0  0  0  0  0  0  0  0  0
   -3.0656   30.0638    8.2597 C   0  0  0  0  0  0  0  0  0  0  0  0
   -3.7278   29.1062    7.4831 C   0  0  0  0  0  0  0  0  0  0  0  0
   -3.0297   28.1883    6.6839 C   0  0  0  0  0  0  0  0  0  0  0  0
   -1.6327   28.2866    6.6783 C   0  0  0  0  0  0  0  0  0  0  0  0
   -0.9595   29.2428    7.4550 C   0  0  0  0  0  0  0  0  0  0  0  0
    0.7683   29.2623    7.3680 Cl  0  0  0  0  0  0  0  0  0  0  0  0
   -1.9858   31.9126   10.0194 C   0  0  0  0  0  0  0  0  0  0  0  0
   -0.9988   31.2011    9.1054 C   0  0  0  0  0  0  0  0  0  0  0  0
 24 25  1  0  0  0
 25 17  1  0  0  0
 17 18  1  0  0  0
 18 19  2  0  0  0
 19 20  1  0  0  0
 20  1  1  0  0  0
  1  2  1  0  0  0
  2  3  1  0  0  0
  3  4  1  0  0  0
  4  7  1  0  0  0
  7  8  2  0  0  0
  8  9  1  0  0  0
  9 10  2  0  0  0
  9 11  1  0  0  0
 11 12  1  0  0  0
 11 13  1  0  0  0
 13 14  2  0  0  0
 13 15  1  0  0  0
  4  5  1  0  0  0
  5  6  1  0  0  0
 20 21  2  0  0  0
 21 22  1  0  0  0
 22 23  1  0  0  0
 22 17  2  0  0  0
  6  1  1  0  0  0
 15  7  1  0  0  0
 15 16  1  0  0  0
M  END
> <minimizedAffinity>
-9.32553

$$$$
OCNT-2315584


 25 27  0  0  0  0  0  0  0  0999 V2000
   -4.5235   28.4456    5.9553 N   0  0  0  0  0  0  0  0  0  0  0  0
   -3.7049   27.4582    5.4713 C   0  0  0  0  0  0  0  0  0  0  0  0
   -2.5500   27.2507    5.8325 O   0  0  0  0  0  0  0  0  0  0  0  0
   -4.2946   26.6722    4.4740 N   0  0  0  0  0  0  0  0  0  0  0  0
   -3.4569   25.6798    3.8021 C   0  0  0  0  0  0  0  0  0  0  0  0
   -3.9282   25.4130    2.3763 C   0  0  0  0  0  0  0  0  0  0  0  0
   -5.4083   24.9863    2.3057 C   0  0  0  0  0  0  0  0  0  0  0  0
   -6.1766   25.3081    3.5983 C   0  0  0  0  0  0  0  0  0  0  0  0
   -5.7310   26.6405    4.1890 C   0  0  0  0  0  0  0  0  0  0  0  0
   -5.2888   28.7582    5.3835 H   0  0  0  0  0  0  0  0  0  0  0  0
   -5.5852   23.5289    1.9183 C   0  0  0  0  0  0  0  0  0  0  0  0
   -5.3348   22.4861    2.8173 C   0  0  0  0  0  0  0  0  0  0  0  0
   -5.5235   21.1776    2.3965 C   0  0  0  0  0  0  0  0  0  0  0  0
   -5.9403   20.8379    1.1594 N   0  0  0  0  0  0  0  0  0  0  0  0
   -6.1793   21.8539    0.3049 C   0  0  0  0  0  0  0  0  0  0  0  0
   -6.0205   23.1927    0.6318 C   0  0  0  0  0  0  0  0  0  0  0  0
   -3.5013   31.0405    8.5147 C   0  0  0  0  0  0  0  0  0  0  0  0
   -4.2820   30.0368    9.0653 C   0  0  0  0  0  0  0  0  0  0  0  0
   -4.7028   29.0432    8.2020 N   0  0  0  0  0  0  0  0  0  0  0  0
   -4.2617   29.3002    6.9939 C   0  0  0  0  0  0  0  0  0  0  0  0
   -3.2996   30.6915    6.8354 S   0  0  0  0  0  0  0  0  0  0  0  0
   -1.6899   32.7812    8.3171 C   0  0  0  0  0  0  0  0  0  0  0  0
   -2.8733   32.2709    9.1627 C   0  0  0  0  0  0  0  0  0  0  0  0
   -2.3342   31.9387   10.5713 C   0  0  0  0  0  0  0  0  0  0  0  0
   -3.9186   33.3936    9.3150 C   0  0  0  0  0  0  0  0  0  0  0  0
 22 23  1  0  0  0
 23 24  1  0  0  0
 23 25  1  0  0  0
 23 17  1  0  0  0
 17 18  2  0  0  0
 18 19  1  0  0  0
 19 20  2  0  0  0
 20  1  1  0  0  0
  1  2  1  0  0  0
  2  3  2  0  0  0
  2  4  1  0  0  0
  4  5  1  0  0  0
  5  6  1  0  0  0
  6  7  1  0  0  0
  7 11  1  0  0  0
 11 12  2  0  0  0
 12 13  1  0  0  0
 13 14  2  0  0  0
 14 15  1  0  0  0
 15 16  2  0  0  0
  7  8  1  0  0  0
  8  9  1  0  0  0
 20 21  1  0  0  0
 21 17  1  0  0  0
  9  4  1  0  0  0
 16 11  1  0  0  0
  1 10  1  0  0  0
M  END
> <minimizedAffinity>
-9.16293

$$$$
OCNT-2315585


 27 29  0  0  0  0  0  0  0  0999 V2000
   -5.9303   27.3947    3.3665 C   0  0  0  0  0  0  0  0  0  0  0  0
   -5.9306   28.7626    3.1075 C   0  0  0  0  0  0  0  0  0  0  0  0
   -6.0832   29.6892    4.1508 C   0  0  0  0  0  0  0  0  0  0  0  0
   -6.2092   29.2761    5.4795 C   0  0  0  0  0  0  0  0  0  0  0  0
   -6.2483   27.8979    5.7227 C   0  0  0  0  0  0  0  0  0  0  0  0
   -6.0982   26.9682    4.6859 C   0  0  0  0  0  0  0  0  0  0  0  0
   -4.6470   25.6652    2.0797 C   0  0  0  0  0  0  0  0  0  0  0  0
   -3.5639   25.7395    2.6471 O   0  0  0  0  0  0  0  0  0  0  0  0
   -5.7846   26.4000    2.3784 N   0  0  0  0  0  0  0  0  0  0  0  0
   -6.6115   26.1971    1.8312 H   0  0  0  0  0  0  0  0  0  0  0  0
   -4.9060   24.6867    0.9388 C   0  0  0  0  0  0  0  0  0  0  0  0
   -6.7600   23.0212    0.4827 C   0  0  0  0  0  0  0  0  0  0  0  0
   -6.3944   24.5029    0.6034 C   0  0  0  0  0  0  0  0  0  0  0  0
   -6.7308   25.2242   -0.7035 C   0  0  0  0  0  0  0  0  0  0  0  0
   -6.4400   30.1456    6.5483 N   0  0  0  0  0  0  0  0  0  0  0  0
   -7.3845   30.5267    6.5251 H   0  0  0  0  0  0  0  0  0  0  0  0
   -6.0429   29.7597    7.8943 C   0  0  0  0  0  0  0  0  0  0  0  0
   -5.0654   30.7798    8.4277 C   0  0  0  0  0  0  0  0  0  0  0  0
   -5.5331   32.0562    8.8166 C   0  0  0  0  0  0  0  0  0  0  0  0
   -4.6839   33.0433    9.3206 C   0  0  0  0  0  0  0  0  0  0  0  0
   -3.3167   32.8001    9.4585 C   0  0  0  0  0  0  0  0  0  0  0  0
   -2.8159   31.5478    9.0789 C   0  0  0  0  0  0  0  0  0  0  0  0
   -3.6759   30.5710    8.5791 C   0  0  0  0  0  0  0  0  0  0  0  0
   -2.8159   29.5278    8.3260 N   0  0  0  0  0  0  0  0  0  0  0  0
   -3.0923   28.2247    7.7809 C   0  0  0  0  0  0  0  0  0  0  0  0
   -1.5432   29.8359    8.6459 N   0  0  0  0  0  0  0  0  0  0  0  0
   -1.5339   31.0749    9.1116 N   0  0  0  0  0  0  0  0  0  0  0  0
 12 13  1  0  0  0
 13 14  1  0  0  0
 13 11  1  0  0  0
 11  7  1  0  0  0
  7  8  2  0  0  0
  7  9  1  0  0  0
  9  1  1  0  0  0
  1  2  1  0  0  0
  2  3  2  0  0  0
  3  4  1  0  0  0
  4 15  1  0  0  0
 15 17  1  0  0  0
 17 18  1  0  0  0
 18 19  1  0  0  0
 19 20  2  0  0  0
 20 21  1  0  0  0
 21 22  2  0  0  0
 22 23  1  0  0  0
 23 24  1  0  0  0
 24 25  1  0  0  0
 24 26  1  0  0  0
 26 27  2  0  0  0
  4  5  2  0  0  0
  5  6  1  0  0  0
  6  1  2  0  0  0
 23 18  2  0  0  0
 27 22  1  0  0  0
  9 10  1  0  0  0
 15 16  1  0  0  0
M  END
> <minimizedAffinity>
-9.61521

$$$$
OCNT-2315612


 28 32  0  0  0  0  0  0  0  0999 V2000
   -6.2308   29.6462    6.7838 S   0  0  0  0  0  0  0  0  0  0  0  0
   -5.9962   28.8802    7.9907 O   0  0  0  0  0  0  0  0  0  0  0  0
   -7.4641   30.3742    6.5770 O   0  0  0  0  0  0  0  0  0  0  0  0
   -4.8882   30.6662    6.5247 N   0  0  0  0  0  0  0  0  0  0  0  0
   -3.6309   29.9979    6.0442 C   0  0  0  0  0  0  0  0  0  0  0  0
   -2.5819   30.1261    7.1773 C   0  0  0  0  0  0  0  0  0  0  0  0
   -2.4156   28.8243    7.9732 C   0  0  0  0  0  0  0  0  0  0  0  0
   -1.0398   28.9353    8.6203 C   0  0  0  0  0  0  0  0  0  0  0  0
   -0.2083   29.8115    7.6869 C   0  0  0  0  0  0  0  0  0  0  0  0
   -1.1697   30.3816    6.6422 C   0  0  0  0  0  0  0  0  0  0  0  0
   -3.1713   31.2413    8.0046 C   0  0  0  0  0  0  0  0  0  0  0  0
   -2.5948   31.9804    9.0302 C   0  0  0  0  0  0  0  0  0  0  0  0
   -3.3674   32.9427    9.6867 C   0  0  0  0  0  0  0  0  0  0  0  0
   -4.7004   33.1625    9.3158 C   0  0  0  0  0  0  0  0  0  0  0  0
   -5.2756   32.4245    8.2809 C   0  0  0  0  0  0  0  0  0  0  0  0
   -4.5008   31.4681    7.6460 C   0  0  0  0  0  0  0  0  0  0  0  0
   -5.7188   25.7153    1.1629 O   0  0  0  0  0  0  0  0  0  0  0  0
   -5.7414   25.6596    2.3751 C   0  0  0  0  0  0  0  0  0  0  0  0
   -5.6683   24.5572    3.1697 N   0  0  0  0  0  0  0  0  0  0  0  0
   -5.7516   24.8647    4.4929 C   0  0  0  0  0  0  0  0  0  0  0  0
   -5.7428   24.1079    5.4414 O   0  0  0  0  0  0  0  0  0  0  0  0
   -5.8738   26.3200    4.5718 C   0  0  0  0  0  0  0  0  0  0  0  0
   -5.9835   27.1515    5.6673 C   0  0  0  0  0  0  0  0  0  0  0  0
   -6.0950   28.5234    5.4017 C   0  0  0  0  0  0  0  0  0  0  0  0
   -6.0859   29.0292    4.0808 C   0  0  0  0  0  0  0  0  0  0  0  0
   -5.9730   28.1568    2.9927 C   0  0  0  0  0  0  0  0  0  0  0  0
   -5.8690   26.8074    3.2732 C   0  0  0  0  0  0  0  0  0  0  0  0
   -5.5859   23.6168    2.8175 H   0  0  0  0  0  0  0  0  0  0  0  0
 17 18  2  0  0  0
 18 19  1  0  0  0
 19 20  1  0  0  0
 20 21  2  0  0  0
 20 22  1  0  0  0
 22 23  1  0  0  0
 23 24  2  0  0  0
 24  1  1  0  0  0
  1  2  2  0  0  0
  1  3  2  0  0  0
  1  4  1  0  0  0
  4  5  1  0  0  0
  5  6  1  0  0  0
  6  7  1  0  0  0
  7  8  1  0  0  0
  8  9  1  0  0  0
  9 10  1  0  0  0
  6 11  1  0  0  0
 11 12  2  0  0  0
 12 13  1  0  0  0
 13 14  2  0  0  0
 14 15  1  0  0  0
 15 16  2  0  0  0
 24 25  1  0  0  0
 25 26  2  0  0  0
 26 27  1  0  0  0
 27 18  1  0  0  0
 27 22  2  0  0  0
 16  4  1  0  0  0
 10  6  1  0  0  0
 16 11  1  0  0  0
 19 28  1  0  0  0
M  END
> <minimizedAffinity>
-10.96874

$$$$
OCNT-2315622


 27 30  0  0  0  0  0  0  0  0999 V2000
   -3.9222   27.3855    4.8707 N   0  0  0  0  0  0  0  0  0  0  0  0
   -4.3301   27.7771    4.0212 H   0  0  0  0  0  0  0  0  0  0  0  0
   -3.9821   25.9209    4.8571 C   0  0  0  0  0  0  0  0  0  0  0  0
   -3.4155   25.4047    3.5273 C   0  0  0  0  0  0  0  0  0  0  0  0
   -4.5677   25.5350    2.5194 C   0  0  0  0  0  0  0  0  0  0  0  0
   -5.8591   25.4790    3.3621 C   0  0  0  0  0  0  0  0  0  0  0  0
   -5.4064   25.3300    4.8150 C   0  0  0  0  0  0  0  0  0  0  0  0
   -5.3689   23.9367    5.1290 O   0  0  0  0  0  0  0  0  0  0  0  0
   -5.1466   23.8582    6.0735 H   0  0  0  0  0  0  0  0  0  0  0  0
   -4.4898   24.4574    1.4353 C   0  0  0  0  0  0  0  0  0  0  0  0
   -5.7119   24.3357    0.6655 N   0  0  0  0  0  0  0  0  0  0  0  0
   -6.5651   23.2678    0.6693 C   0  0  0  0  0  0  0  0  0  0  0  0
   -7.5783   23.6225   -0.1905 C   0  0  0  0  0  0  0  0  0  0  0  0
   -7.3652   24.8760   -0.7033 N   0  0  0  0  0  0  0  0  0  0  0  0
   -6.2381   25.2836   -0.1639 C   0  0  0  0  0  0  0  0  0  0  0  0
   -4.6166   27.9597    6.0181 C   0  0  0  0  0  0  0  0  0  0  0  0
   -1.7147   27.1659    7.1526 C   0  0  0  0  0  0  0  0  0  0  0  0
   -2.4020   28.4797    7.2907 C   0  0  0  0  0  0  0  0  0  0  0  0
   -3.6573   28.8073    6.7919 C   0  0  0  0  0  0  0  0  0  0  0  0
   -3.9154   30.1174    7.1453 N   0  0  0  0  0  0  0  0  0  0  0  0
   -5.1353   30.8406    6.8478 C   0  0  0  0  0  0  0  0  0  0  0  0
   -2.8584   30.6395    7.8657 C   0  0  0  0  0  0  0  0  0  0  0  0
   -2.6701   31.9065    8.4462 C   0  0  0  0  0  0  0  0  0  0  0  0
   -1.4731   32.1555    9.1236 C   0  0  0  0  0  0  0  0  0  0  0  0
   -0.4942   31.1743    9.2246 C   0  0  0  0  0  0  0  0  0  0  0  0
   -0.6926   29.9146    8.6507 C   0  0  0  0  0  0  0  0  0  0  0  0
   -1.8929   29.6358    7.9611 C   0  0  0  0  0  0  0  0  0  0  0  0
 17 18  1  0  0  0
 18 19  2  0  0  0
 19 16  1  0  0  0
 16  1  1  0  0  0
  1  3  1  0  0  0
  3  4  1  0  0  0
  4  5  1  0  0  0
  5 10  1  0  0  0
 10 11  1  0  0  0
 11 12  1  0  0  0
 12 13  2  0  0  0
 13 14  1  0  0  0
 14 15  2  0  0  0
  5  6  1  0  0  0
  6  7  1  0  0  0
  7  8  1  0  0  0
 19 20  1  0  0  0
 20 21  1  0  0  0
 20 22  1  0  0  0
 22 23  2  0  0  0
 23 24  1  0  0  0
 24 25  2  0  0  0
 25 26  1  0  0  0
 26 27  2  0  0  0
 27 18  1  0  0  0
  7  3  1  0  0  0
 27 22  1  0  0  0
 15 11  1  0  0  0
  1  2  1  0  0  0
  8  9  1  0  0  0
M  END
> <minimizedAffinity>
-8.92499

$$$$
OCNT-2315627


 26 30  0  0  0  0  0  0  0  0999 V2000
   -4.7092   26.3154    3.3834 C   0  0  0  0  0  0  0  0  0  0  0  0
   -5.8540   27.3029    3.6707 C   0  0  0  0  0  0  0  0  0  0  0  0
   -5.7382   27.9740    5.0410 C   0  0  0  0  0  0  0  0  0  0  0  0
   -4.3289   28.2456    5.3347 N   0  0  0  0  0  0  0  0  0  0  0  0
   -3.4544   27.0668    5.4341 C   0  0  0  0  0  0  0  0  0  0  0  0
   -4.0300   25.8664    4.6811 C   0  0  0  0  0  0  0  0  0  0  0  0
   -8.4514   20.7694    2.7012 F   0  0  0  0  0  0  0  0  0  0  0  0
   -7.6758   21.8611    2.7480 C   0  0  0  0  0  0  0  0  0  0  0  0
   -7.6566   22.6236    3.9159 C   0  0  0  0  0  0  0  0  0  0  0  0
   -6.8589   23.7733    4.0066 C   0  0  0  0  0  0  0  0  0  0  0  0
   -6.0831   24.1332    2.8894 C   0  0  0  0  0  0  0  0  0  0  0  0
   -6.1371   23.3405    1.7551 C   0  0  0  0  0  0  0  0  0  0  0  0
   -6.9158   22.1953    1.6295 C   0  0  0  0  0  0  0  0  0  0  0  0
   -5.3162   23.8587    0.8048 O   0  0  0  0  0  0  0  0  0  0  0  0
   -4.7034   25.0004    1.2927 N   0  0  0  0  0  0  0  0  0  0  0  0
   -5.1699   25.1638    2.5400 C   0  0  0  0  0  0  0  0  0  0  0  0
   -4.1259   29.1894    6.3606 C   0  0  0  0  0  0  0  0  0  0  0  0
   -5.1884   29.9233    6.9007 C   0  0  0  0  0  0  0  0  0  0  0  0
   -5.0654   30.8474    7.8878 N   0  0  0  0  0  0  0  0  0  0  0  0
   -3.8130   31.0201    8.3669 C   0  0  0  0  0  0  0  0  0  0  0  0
   -3.6320   32.0694    9.4283 C   0  0  0  0  0  0  0  0  0  0  0  0
   -2.3147   31.9354   10.1891 C   0  0  0  0  0  0  0  0  0  0  0  0
   -1.1575   31.7383    9.2163 C   0  0  0  0  0  0  0  0  0  0  0  0
   -1.3473   30.4503    8.4182 C   0  0  0  0  0  0  0  0  0  0  0  0
   -2.7335   30.2993    7.8543 C   0  0  0  0  0  0  0  0  0  0  0  0
   -2.8859   29.3792    6.8642 N   0  0  0  0  0  0  0  0  0  0  0  0
  7  8  1  0  0  0
  8  9  2  0  0  0
  9 10  1  0  0  0
 10 11  2  0  0  0
 11 12  1  0  0  0
 12 13  2  0  0  0
 12 14  1  0  0  0
 14 15  1  0  0  0
 15 16  2  0  0  0
 16  1  1  0  0  0
  1  2  1  0  0  0
  2  3  1  0  0  0
  3  4  1  0  0  0
  4 17  1  0  0  0
 17 18  1  0  0  0
 18 19  2  0  0  0
 19 20  1  0  0  0
 20 21  1  0  0  0
 21 22  1  0  0  0
 22 23  1  0  0  0
 23 24  1  0  0  0
 24 25  1  0  0  0
 25 26  1  0  0  0
  4  5  1  0  0  0
  5  6  1  0  0  0
 13  8  1  0  0  0
  6  1  1  0  0  0
 16 11  1  0  0  0
 26 17  2  0  0  0
 25 20  2  0  0  0
M  END
> <minimizedAffinity>
-10.47035

$$$$
OCNT-2315629


 27 31  0  0  0  0  0  0  0  0999 V2000
   -5.5348   28.1448    5.3979 C   0  0  0  0  0  0  0  0  0  0  0  0
   -5.5212   28.1304    6.7132 N   0  0  0  0  0  0  0  0  0  0  0  0
   -5.3148   29.4542    7.0176 C   0  0  0  0  0  0  0  0  0  0  0  0
   -5.2058   30.2654    5.9560 N   0  0  0  0  0  0  0  0  0  0  0  0
   -5.3542   29.3954    4.8751 O   0  0  0  0  0  0  0  0  0  0  0  0
   -6.7386   23.3914    4.7063 C   0  0  0  0  0  0  0  0  0  0  0  0
   -6.3053   24.6833    4.0601 C   0  0  0  0  0  0  0  0  0  0  0  0
   -6.1152   25.7877    4.9223 C   0  0  0  0  0  0  0  0  0  0  0  0
   -5.7128   27.0466    4.4545 C   0  0  0  0  0  0  0  0  0  0  0  0
   -5.4954   27.1983    3.0842 C   0  0  0  0  0  0  0  0  0  0  0  0
   -5.6756   26.1222    2.2060 C   0  0  0  0  0  0  0  0  0  0  0  0
   -6.0808   24.8560    2.6739 C   0  0  0  0  0  0  0  0  0  0  0  0
   -6.2471   23.8022    1.7251 N   0  0  0  0  0  0  0  0  0  0  0  0
   -5.4160   22.7366    1.4576 C   0  0  0  0  0  0  0  0  0  0  0  0
   -5.9359   21.9949    0.5072 N   0  0  0  0  0  0  0  0  0  0  0  0
   -7.1120   22.6012    0.1707 N   0  0  0  0  0  0  0  0  0  0  0  0
   -7.3097   23.6903    0.8976 N   0  0  0  0  0  0  0  0  0  0  0  0
   -5.1848   29.9719    8.5063 C   0  0  0  0  0  0  0  0  0  0  0  0
   -6.2959   31.0195    8.8841 C   0  0  0  0  0  0  0  0  0  0  0  0
   -6.4372   30.2936   10.2340 C   0  0  0  0  0  0  0  0  0  0  0  0
   -5.9189   29.0275    9.5289 C   0  0  0  0  0  0  0  0  0  0  0  0
   -3.6511   30.3516    8.8040 C   0  0  0  0  0  0  0  0  0  0  0  0
   -2.5832   29.5243    8.4098 C   0  0  0  0  0  0  0  0  0  0  0  0
   -1.2719   29.8926    8.6800 C   0  0  0  0  0  0  0  0  0  0  0  0
   -0.9296   31.0309    9.3119 N   0  0  0  0  0  0  0  0  0  0  0  0
   -1.9438   31.8375    9.6771 C   0  0  0  0  0  0  0  0  0  0  0  0
   -3.2822   31.5472    9.4472 C   0  0  0  0  0  0  0  0  0  0  0  0
  6  7  1  0  0  0
  7  8  1  0  0  0
  8  9  2  0  0  0
  9  1  1  0  0  0
  1  2  2  0  0  0
  2  3  1  0  0  0
  3 18  1  0  0  0
 18 22  1  0  0  0
 22 23  2  0  0  0
 23 24  1  0  0  0
 24 25  2  0  0  0
 25 26  1  0  0  0
 26 27  2  0  0  0
 18 19  1  0  0  0
 19 20  1  0  0  0
 20 21  1  0  0  0
  3  4  2  0  0  0
  4  5  1  0  0  0
  9 10  1  0  0  0
 10 11  2  0  0  0
 11 12  1  0  0  0
 12 13  1  0  0  0
 13 14  1  0  0  0
 14 15  2  0  0  0
 15 16  1  0  0  0
 16 17  2  0  0  0
 12  7  2  0  0  0
 17 13  1  0  0  0
  5  1  1  0  0  0
 21 18  1  0  0  0
 27 22  1  0  0  0
M  END
> <minimizedAffinity>
-10.05641

$$$$
