OCNT-2318024


 27 30  0  0  0  0  0  0  0  0999 V2000
   -5.4360   23.4379    5.2725 C   0  0  0  0  0  0  0  0  0  0  0  0
   -6.3372   24.0046    4.1761 C   0  0  0  0  0  0  0  0  0  0  0  0
   -6.0851   25.5209    3.9789 C   0  0  0  0  0  0  0  0  0  0  0  0
   -4.7737   25.8511    3.3963 N   0  0  0  0  0  0  0  0  0  0  0  0
   -3.7354   26.4507    4.0894 C   0  0  0  0  0  0  0  0  0  0  0  0
   -2.5660   26.3965    3.7202 O   0  0  0  0  0  0  0  0  0  0  0  0
   -4.1153   27.1246    5.2238 N   0  0  0  0  0  0  0  0  0  0  0  0
   -4.4000   25.1773    2.1525 C   0  0  0  0  0  0  0  0  0  0  0  0
   -5.5757   24.7239    1.3301 C   0  0  0  0  0  0  0  0  0  0  0  0
   -5.8447   25.2800    0.0731 C   0  0  0  0  0  0  0  0  0  0  0  0
   -6.9301   24.8259   -0.6797 C   0  0  0  0  0  0  0  0  0  0  0  0
   -7.7496   23.8099   -0.1868 C   0  0  0  0  0  0  0  0  0  0  0  0
   -7.4932   23.2532    1.0652 C   0  0  0  0  0  0  0  0  0  0  0  0
   -6.4269   23.7278    1.8242 C   0  0  0  0  0  0  0  0  0  0  0  0
   -6.1881   23.1403    3.0323 O   0  0  0  0  0  0  0  0  0  0  0  0
   -4.9793   27.6292    5.0919 H   0  0  0  0  0  0  0  0  0  0  0  0
   -3.1208   27.8305    6.0180 C   0  0  0  0  0  0  0  0  0  0  0  0
   -3.7033   28.5664    7.2452 C   0  0  0  0  0  0  0  0  0  0  0  0
   -5.0494   29.2399    6.9592 C   0  0  0  0  0  0  0  0  0  0  0  0
   -4.8400   30.4935    6.1270 C   0  0  0  0  0  0  0  0  0  0  0  0
   -4.0238   31.4644    6.7838 O   0  0  0  0  0  0  0  0  0  0  0  0
   -2.9367   30.9736    7.4545 C   0  0  0  0  0  0  0  0  0  0  0  0
   -2.0272   31.9295    7.9099 C   0  0  0  0  0  0  0  0  0  0  0  0
   -0.8952   31.5403    8.6255 C   0  0  0  0  0  0  0  0  0  0  0  0
   -0.6748   30.1918    8.8949 C   0  0  0  0  0  0  0  0  0  0  0  0
   -1.5861   29.2340    8.4490 C   0  0  0  0  0  0  0  0  0  0  0  0
   -2.7263   29.6165    7.7241 C   0  0  0  0  0  0  0  0  0  0  0  0
  1  2  1  0  0  0
  2  3  1  0  0  0
  3  4  1  0  0  0
  4  5  1  0  0  0
  5  6  2  0  0  0
  5  7  1  0  0  0
  7 17  1  0  0  0
 17 18  1  0  0  0
 18 19  1  0  0  0
 19 20  1  0  0  0
 20 21  1  0  0  0
 21 22  1  0  0  0
 22 23  2  0  0  0
 23 24  1  0  0  0
 24 25  2  0  0  0
 25 26  1  0  0  0
 26 27  2  0  0  0
  4  8  1  0  0  0
  8  9  1  0  0  0
  9 10  2  0  0  0
 10 11  1  0  0  0
 11 12  2  0  0  0
 12 13  1  0  0  0
 13 14  2  0  0  0
 14 15  1  0  0  0
 15  2  1  0  0  0
 27 18  1  0  0  0
 14  9  1  0  0  0
 27 22  1  0  0  0
  7 16  1  0  0  0
M  END
> <minimizedAffinity>
-10.60638

$$$$
OCNT-2318042


 24 26  0  0  0  0  0  0  0  0999 V2000
   -1.5885   27.4766    5.9817 N   0  0  0  0  0  0  0  0  0  0  0  0
   -3.0427   27.3293    6.1719 C   0  0  0  0  0  0  0  0  0  0  0  0
   -3.7524   27.1007    4.8406 C   0  0  0  0  0  0  0  0  0  0  0  0
   -3.1963   25.8668    4.1301 C   0  0  0  0  0  0  0  0  0  0  0  0
   -1.6786   26.0042    4.0015 C   0  0  0  0  0  0  0  0  0  0  0  0
   -1.0366   26.2606    5.3619 C   0  0  0  0  0  0  0  0  0  0  0  0
   -0.9234   27.7879    7.2669 C   0  0  0  0  0  0  0  0  0  0  0  0
    0.8963   28.9945    8.5016 C   0  0  0  0  0  0  0  0  0  0  0  0
   -0.1763   29.1765    7.3884 C   0  0  0  0  0  0  0  0  0  0  0  0
    0.6351   29.5036    6.1109 C   0  0  0  0  0  0  0  0  0  0  0  0
   -1.0348   30.3432    7.7351 N   0  0  0  0  0  0  0  0  0  0  0  0
   -1.6209   31.0964    6.6054 C   0  0  0  0  0  0  0  0  0  0  0  0
   -3.1598   31.1402    6.6008 C   0  0  0  0  0  0  0  0  0  0  0  0
   -3.7187   31.6728    7.8071 O   0  0  0  0  0  0  0  0  0  0  0  0
   -2.9355   31.3652    8.9651 C   0  0  0  0  0  0  0  0  0  0  0  0
   -2.0377   30.1274    8.7925 C   0  0  0  0  0  0  0  0  0  0  0  0
   -3.7266   25.7623    2.8037 O   0  0  0  0  0  0  0  0  0  0  0  0
   -4.4820   24.6342    2.5526 C   0  0  0  0  0  0  0  0  0  0  0  0
   -4.0986   23.4371    3.0593 N   0  0  0  0  0  0  0  0  0  0  0  0
   -4.8905   22.3779    2.7753 C   0  0  0  0  0  0  0  0  0  0  0  0
   -6.0457   22.4557    2.0098 C   0  0  0  0  0  0  0  0  0  0  0  0
   -6.4171   23.6960    1.5007 C   0  0  0  0  0  0  0  0  0  0  0  0
   -5.6232   24.8011    1.7767 C   0  0  0  0  0  0  0  0  0  0  0  0
   -5.9706   26.0017    1.2917 F   0  0  0  0  0  0  0  0  0  0  0  0
  8  9  1  0  0  0
  9 10  1  0  0  0
  9  7  1  0  0  0
  7  1  1  0  0  0
  1  2  1  0  0  0
  2  3  1  0  0  0
  3  4  1  0  0  0
  4 17  1  0  0  0
 17 18  1  0  0  0
 18 19  1  0  0  0
 19 20  2  0  0  0
 20 21  1  0  0  0
 21 22  2  0  0  0
 22 23  1  0  0  0
 23 24  1  0  0  0
  4  5  1  0  0  0
  5  6  1  0  0  0
  9 11  1  0  0  0
 11 12  1  0  0  0
 12 13  1  0  0  0
 13 14  1  0  0  0
 14 15  1  0  0  0
 15 16  1  0  0  0
  6  1  1  0  0  0
 16 11  1  0  0  0
 23 18  2  0  0  0
M  END
> <minimizedAffinity>
-8.46577

$$$$
OCNT-2318057


 26 28  0  0  0  0  0  0  0  0999 V2000
   -3.1913   25.8212    2.5621 C   0  0  0  0  0  0  0  0  0  0  0  0
   -4.4151   25.6514    3.4166 C   0  0  0  0  0  0  0  0  0  0  0  0
   -4.7243   26.6231    4.3822 C   0  0  0  0  0  0  0  0  0  0  0  0
   -5.8627   26.4954    5.1742 C   0  0  0  0  0  0  0  0  0  0  0  0
   -6.6487   25.3749    4.9569 C   0  0  0  0  0  0  0  0  0  0  0  0
   -6.3685   24.4125    4.0410 N   0  0  0  0  0  0  0  0  0  0  0  0
   -5.2608   24.5386    3.2831 C   0  0  0  0  0  0  0  0  0  0  0  0
   -4.9381   23.5350    2.3549 N   0  0  0  0  0  0  0  0  0  0  0  0
   -4.5969   22.2714    3.0332 C   0  0  0  0  0  0  0  0  0  0  0  0
   -5.8407   21.4738    3.4297 C   0  0  0  0  0  0  0  0  0  0  0  0
   -6.7578   21.2399    2.2335 C   0  0  0  0  0  0  0  0  0  0  0  0
   -7.1058   22.5531    1.5362 C   0  0  0  0  0  0  0  0  0  0  0  0
   -5.8416   23.3539    1.1945 C   0  0  0  0  0  0  0  0  0  0  0  0
   -6.1601   24.6657    0.4757 C   0  0  0  0  0  0  0  0  0  0  0  0
   -6.1230   27.5067    6.1220 N   0  0  0  0  0  0  0  0  0  0  0  0
   -6.4418   28.8279    5.8581 C   0  0  0  0  0  0  0  0  0  0  0  0
   -6.5565   29.3340    4.7485 O   0  0  0  0  0  0  0  0  0  0  0  0
   -6.0601   27.2348    7.0958 H   0  0  0  0  0  0  0  0  0  0  0  0
   -6.6616   29.6147    7.1352 C   0  0  0  0  0  0  0  0  0  0  0  0
   -5.4207   29.6086    8.0229 C   0  0  0  0  0  0  0  0  0  0  0  0
   -4.2287   30.1638    7.3320 C   0  0  0  0  0  0  0  0  0  0  0  0
   -4.0987   31.3193    6.5948 C   0  0  0  0  0  0  0  0  0  0  0  0
   -2.7959   31.3122    6.1988 N   0  0  0  0  0  0  0  0  0  0  0  0
   -2.1498   30.2330    6.6622 N   0  0  0  0  0  0  0  0  0  0  0  0
   -3.0223   29.5129    7.3533 N   0  0  0  0  0  0  0  0  0  0  0  0
   -2.2859   31.9807    5.6329 H   0  0  0  0  0  0  0  0  0  0  0  0
  1  2  1  0  0  0
  2  3  1  0  0  0
  3  4  2  0  0  0
  4 15  1  0  0  0
 15 16  1  0  0  0
 16 17  2  0  0  0
 16 19  1  0  0  0
 19 20  1  0  0  0
 20 21  1  0  0  0
 21 22  2  0  0  0
 22 23  1  0  0  0
 23 24  1  0  0  0
 24 25  2  0  0  0
  4  5  1  0  0  0
  5  6  2  0  0  0
  6  7  1  0  0  0
  7  8  1  0  0  0
  8  9  1  0  0  0
  9 10  1  0  0  0
 10 11  1  0  0  0
 11 12  1  0  0  0
 12 13  1  0  0  0
 13 14  1  0  0  0
  7  2  2  0  0  0
 13  8  1  0  0  0
 25 21  1  0  0  0
 15 18  1  0  0  0
 23 26  1  0  0  0
M  END
> <minimizedAffinity>
-8.09836

$$$$
OCNT-2318067


 25 27  0  0  0  0  0  0  0  0999 V2000
   -6.6300   29.1601    5.6163 C   0  0  0  0  0  0  0  0  0  0  0  0
   -6.5172   27.7864    5.8681 C   0  0  0  0  0  0  0  0  0  0  0  0
   -6.0076   26.9247    4.8947 C   0  0  0  0  0  0  0  0  0  0  0  0
   -5.6014   27.4165    3.6473 C   0  0  0  0  0  0  0  0  0  0  0  0
   -5.7294   28.7863    3.3873 C   0  0  0  0  0  0  0  0  0  0  0  0
   -6.2388   29.6486    4.3619 C   0  0  0  0  0  0  0  0  0  0  0  0
   -7.1884   30.0952    6.6578 C   0  0  0  0  0  0  0  0  0  0  0  0
   -5.9684   30.4856    7.9230 S   0  0  0  0  0  0  0  0  0  0  0  0
   -4.8521   29.5704    7.8090 O   0  0  0  0  0  0  0  0  0  0  0  0
   -6.6603   30.6455    9.1845 O   0  0  0  0  0  0  0  0  0  0  0  0
   -5.3767   31.9826    7.4664 N   0  0  0  0  0  0  0  0  0  0  0  0
   -4.9983   31.9961    6.5189 H   0  0  0  0  0  0  0  0  0  0  0  0
   -3.3255   32.6601    8.6129 C   0  0  0  0  0  0  0  0  0  0  0  0
   -4.8229   32.9047    8.4635 C   0  0  0  0  0  0  0  0  0  0  0  0
   -5.0840   34.3321    7.9916 C   0  0  0  0  0  0  0  0  0  0  0  0
   -5.0579   26.4720    2.5956 C   0  0  0  0  0  0  0  0  0  0  0  0
   -6.1122   25.5714    2.1384 N   0  0  0  0  0  0  0  0  0  0  0  0
   -6.5368   25.9785    1.3056 H   0  0  0  0  0  0  0  0  0  0  0  0
   -5.8026   24.1450    1.9895 C   0  0  0  0  0  0  0  0  0  0  0  0
   -6.2276   23.2770    3.1997 C   0  0  0  0  0  0  0  0  0  0  0  0
   -7.4556   22.7793    2.3883 C   0  0  0  0  0  0  0  0  0  0  0  0
   -6.7957   23.3750    1.1572 C   0  0  0  0  0  0  0  0  0  0  0  0
   -6.2252   22.3711    0.1603 C   0  0  0  0  0  0  0  0  0  0  0  0
   -7.4823   22.6443   -0.6985 C   0  0  0  0  0  0  0  0  0  0  0  0
   -7.6442   23.9816    0.0649 C   0  0  0  0  0  0  0  0  0  0  0  0
 13 14  1  0  0  0
 14 15  1  0  0  0
 14 11  1  0  0  0
 11  8  1  0  0  0
  8  9  2  0  0  0
  8 10  2  0  0  0
  8  7  1  0  0  0
  7  1  1  0  0  0
  1  2  1  0  0  0
  2  3  2  0  0  0
  3  4  1  0  0  0
  4 16  1  0  0  0
 16 17  1  0  0  0
 17 19  1  0  0  0
 19 20  1  0  0  0
 20 21  1  0  0  0
 21 22  1  0  0  0
 22 23  1  0  0  0
 23 24  1  0  0  0
 24 25  1  0  0  0
  4  5  2  0  0  0
  5  6  1  0  0  0
  6  1  2  0  0  0
 22 19  1  0  0  0
 25 22  1  0  0  0
 11 12  1  0  0  0
 17 18  1  0  0  0
M  END
> <minimizedAffinity>
-9.00984

$$$$
OCNT-2318082


 22 24  0  0  0  0  0  0  0  0999 V2000
   -3.4779   28.6137    7.1834 C   0  0  0  0  0  0  0  0  0  0  0  0
   -2.1988   28.8930    7.1845 N   0  0  0  0  0  0  0  0  0  0  0  0
   -2.0416   29.8964    8.1021 C   0  0  0  0  0  0  0  0  0  0  0  0
   -0.8734   30.5760    8.4801 C   0  0  0  0  0  0  0  0  0  0  0  0
   -0.9597   31.5820    9.4484 C   0  0  0  0  0  0  0  0  0  0  0  0
   -2.1858   31.9046   10.0302 C   0  0  0  0  0  0  0  0  0  0  0  0
   -3.3611   31.2353    9.6679 C   0  0  0  0  0  0  0  0  0  0  0  0
   -3.2562   30.2306    8.6955 C   0  0  0  0  0  0  0  0  0  0  0  0
   -4.1662   29.3702    8.1083 N   0  0  0  0  0  0  0  0  0  0  0  0
   -5.5792   29.2737    8.4613 C   0  0  0  0  0  0  0  0  0  0  0  0
   -6.3640   30.5459    8.1345 C   0  0  0  0  0  0  0  0  0  0  0  0
   -5.7985   28.8234    9.9053 C   0  0  0  0  0  0  0  0  0  0  0  0
   -4.0848   27.6823    6.4104 N   0  0  0  0  0  0  0  0  0  0  0  0
   -4.4390   26.9202    6.9940 H   0  0  0  0  0  0  0  0  0  0  0  0
   -3.2014   27.0214    5.4300 C   0  0  0  0  0  0  0  0  0  0  0  0
   -5.9078   25.1924    0.6734 C   0  0  0  0  0  0  0  0  0  0  0  0
   -5.2596   25.6707    1.9327 C   0  0  0  0  0  0  0  0  0  0  0  0
   -5.7900   26.7318    2.6646 C   0  0  0  0  0  0  0  0  0  0  0  0
   -5.1366   27.1741    3.8123 C   0  0  0  0  0  0  0  0  0  0  0  0
   -3.9576   26.5450    4.2035 C   0  0  0  0  0  0  0  0  0  0  0  0
   -3.4081   25.5272    3.4914 N   0  0  0  0  0  0  0  0  0  0  0  0
   -4.0661   25.1193    2.3820 C   0  0  0  0  0  0  0  0  0  0  0  0
 16 17  1  0  0  0
 17 18  2  0  0  0
 18 19  1  0  0  0
 19 20  2  0  0  0
 20 15  1  0  0  0
 15 13  1  0  0  0
 13  1  1  0  0  0
  1  2  2  0  0  0
  2  3  1  0  0  0
  3  4  2  0  0  0
  4  5  1  0  0  0
  5  6  2  0  0  0
  6  7  1  0  0  0
  7  8  2  0  0  0
  8  9  1  0  0  0
  9 10  1  0  0  0
 10 11  1  0  0  0
 10 12  1  0  0  0
 20 21  1  0  0  0
 21 22  2  0  0  0
 22 17  1  0  0  0
  9  1  1  0  0  0
  8  3  1  0  0  0
 13 14  1  0  0  0
M  END
> <minimizedAffinity>
-8.63264

$$$$
OCNT-2318089


 24 25  0  0  0  0  0  0  0  0999 V2000
   -6.2187   28.8861    7.7803 C   0  0  0  0  0  0  0  0  0  0  0  0
   -6.5722   28.8668    9.1125 C   0  0  0  0  0  0  0  0  0  0  0  0
   -5.4503   29.3527    9.8282 C   0  0  0  0  0  0  0  0  0  0  0  0
   -4.4715   29.6395    8.8955 C   0  0  0  0  0  0  0  0  0  0  0  0
   -4.9461   29.3561    7.6446 O   0  0  0  0  0  0  0  0  0  0  0  0
   -3.1075   30.1600    8.9683 C   0  0  0  0  0  0  0  0  0  0  0  0
   -2.8380   31.3639    9.6357 C   0  0  0  0  0  0  0  0  0  0  0  0
   -1.5366   31.8665    9.7149 C   0  0  0  0  0  0  0  0  0  0  0  0
   -0.4819   31.1723    9.1248 C   0  0  0  0  0  0  0  0  0  0  0  0
   -0.7190   29.9713    8.4424 C   0  0  0  0  0  0  0  0  0  0  0  0
   -2.0331   29.4732    8.3785 C   0  0  0  0  0  0  0  0  0  0  0  0
    0.4166   29.2005    7.8164 C   0  0  0  0  0  0  0  0  0  0  0  0
    0.8072   29.7063    6.6134 F   0  0  0  0  0  0  0  0  0  0  0  0
    1.5396   29.1801    8.5892 F   0  0  0  0  0  0  0  0  0  0  0  0
    0.0972   27.8965    7.5909 F   0  0  0  0  0  0  0  0  0  0  0  0
   -6.9335   28.5143    6.5291 C   0  0  0  0  0  0  0  0  0  0  0  0
   -6.2539   27.3950    5.8734 N   0  0  0  0  0  0  0  0  0  0  0  0
   -6.9497   26.7383    5.5204 H   0  0  0  0  0  0  0  0  0  0  0  0
   -5.3632   27.8319    4.7750 C   0  0  0  0  0  0  0  0  0  0  0  0
   -4.0327   27.0643    4.9428 C   0  0  0  0  0  0  0  0  0  0  0  0
   -3.1264   27.8438    5.7254 O   0  0  0  0  0  0  0  0  0  0  0  0
   -3.7000   28.2931    6.3820 H   0  0  0  0  0  0  0  0  0  0  0  0
   -5.6798   26.2125    2.8208 C   0  0  0  0  0  0  0  0  0  0  0  0
   -5.9977   27.5873    3.3944 C   0  0  0  0  0  0  0  0  0  0  0  0
 23 24  1  0  0  0
 24 19  1  0  0  0
 19 20  1  0  0  0
 20 21  1  0  0  0
 19 17  1  0  0  0
 17 16  1  0  0  0
 16  1  1  0  0  0
  1  2  2  0  0  0
  2  3  1  0  0  0
  3  4  2  0  0  0
  4  6  1  0  0  0
  6  7  1  0  0  0
  7  8  2  0  0  0
  8  9  1  0  0  0
  9 10  2  0  0  0
 10 12  1  0  0  0
 12 13  1  0  0  0
 12 14  1  0  0  0
 12 15  1  0  0  0
 10 11  1  0  0  0
  4  5  1  0  0  0
  5  1  1  0  0  0
 11  6  2  0  0  0
 21 22  1  0  0  0
 17 18  1  0  0  0
M  END
> <minimizedAffinity>
-8.69172

$$$$
OCNT-2318090


 24 26  0  0  0  0  0  0  0  0999 V2000
   -0.3467   26.0951    4.2324 C   0  0  0  0  0  0  0  0  0  0  0  0
   -1.8271   25.9912    4.1877 C   0  0  0  0  0  0  0  0  0  0  0  0
   -2.4296   25.4930    3.1097 N   0  0  0  0  0  0  0  0  0  0  0  0
   -3.7525   25.4404    3.4173 N   0  0  0  0  0  0  0  0  0  0  0  0
   -4.0007   26.0764    4.6336 C   0  0  0  0  0  0  0  0  0  0  0  0
   -5.3434   26.3832    5.1915 C   0  0  0  0  0  0  0  0  0  0  0  0
   -2.7576   26.3933    5.1732 C   0  0  0  0  0  0  0  0  0  0  0  0
   -4.6354   24.7842    2.4990 C   0  0  0  0  0  0  0  0  0  0  0  0
   -4.7864   23.3930    2.4530 C   0  0  0  0  0  0  0  0  0  0  0  0
   -5.6614   22.8041    1.5301 C   0  0  0  0  0  0  0  0  0  0  0  0
   -6.3817   23.5984    0.6416 C   0  0  0  0  0  0  0  0  0  0  0  0
   -7.4524   22.8658   -0.4872 Cl  0  0  0  0  0  0  0  0  0  0  0  0
   -6.2291   24.9799    0.6582 C   0  0  0  0  0  0  0  0  0  0  0  0
   -5.3556   25.5694    1.5776 C   0  0  0  0  0  0  0  0  0  0  0  0
   -2.4444   27.0426    6.4802 C   0  0  0  0  0  0  0  0  0  0  0  0
   -2.7381   28.4650    6.3464 N   0  0  0  0  0  0  0  0  0  0  0  0
   -1.9900   28.9098    5.8189 H   0  0  0  0  0  0  0  0  0  0  0  0
   -2.8521   29.0990    7.6567 C   0  0  0  0  0  0  0  0  0  0  0  0
   -1.7984   30.1843    7.7578 C   0  0  0  0  0  0  0  0  0  0  0  0
   -1.6276   30.8991    9.0896 C   0  0  0  0  0  0  0  0  0  0  0  0
   -0.5807   29.9286    8.6329 C   0  0  0  0  0  0  0  0  0  0  0  0
   -1.6222   31.0012    6.4985 C   0  0  0  0  0  0  0  0  0  0  0  0
   -2.9007   31.3617    5.9870 O   0  0  0  0  0  0  0  0  0  0  0  0
   -3.3316   31.9029    6.6685 H   0  0  0  0  0  0  0  0  0  0  0  0
  1  2  1  0  0  0
  2  3  2  0  0  0
  3  4  1  0  0  0
  4  8  1  0  0  0
  8  9  1  0  0  0
  9 10  2  0  0  0
 10 11  1  0  0  0
 11 12  1  0  0  0
 11 13  2  0  0  0
 13 14  1  0  0  0
  4  5  1  0  0  0
  5  6  1  0  0  0
  5  7  2  0  0  0
  7 15  1  0  0  0
 15 16  1  0  0  0
 16 18  1  0  0  0
 18 19  1  0  0  0
 19 22  1  0  0  0
 22 23  1  0  0  0
 19 20  1  0  0  0
 20 21  1  0  0  0
  7  2  1  0  0  0
 21 19  1  0  0  0
 14  8  2  0  0  0
 16 17  1  0  0  0
 23 24  1  0  0  0
M  END
> <minimizedAffinity>
-8.17267

$$$$
OCNT-2318091


 25 27  0  0  0  0  0  0  0  0999 V2000
   -4.1099   27.4581    5.5442 C   0  0  0  0  0  0  0  0  0  0  0  0
   -2.7814   27.5710    5.9943 C   0  0  0  0  0  0  0  0  0  0  0  0
   -2.4635   28.5866    6.8707 C   0  0  0  0  0  0  0  0  0  0  0  0
   -3.3537   29.4868    7.3296 N   0  0  0  0  0  0  0  0  0  0  0  0
   -4.6394   29.4097    6.9235 C   0  0  0  0  0  0  0  0  0  0  0  0
   -5.5793   30.3404    7.3958 C   0  0  0  0  0  0  0  0  0  0  0  0
   -5.1090   31.5970    8.4995 Cl  0  0  0  0  0  0  0  0  0  0  0  0
   -6.9225   30.3113    7.0143 C   0  0  0  0  0  0  0  0  0  0  0  0
   -7.3597   29.3345    6.1389 C   0  0  0  0  0  0  0  0  0  0  0  0
   -6.4493   28.3974    5.6532 C   0  0  0  0  0  0  0  0  0  0  0  0
   -5.0774   28.4030    6.0219 C   0  0  0  0  0  0  0  0  0  0  0  0
   -4.4526   24.1142    2.8780 N   0  0  0  0  0  0  0  0  0  0  0  0
   -5.1022   24.0688    4.2005 C   0  0  0  0  0  0  0  0  0  0  0  0
   -4.4740   25.0546    5.2168 C   0  0  0  0  0  0  0  0  0  0  0  0
   -4.3941   26.4117    4.6471 N   0  0  0  0  0  0  0  0  0  0  0  0
   -3.7454   26.4806    3.3241 C   0  0  0  0  0  0  0  0  0  0  0  0
   -4.4207   25.4912    2.3249 C   0  0  0  0  0  0  0  0  0  0  0  0
   -5.7847   26.0395    1.8822 C   0  0  0  0  0  0  0  0  0  0  0  0
   -4.8770   23.0774    1.9203 C   0  0  0  0  0  0  0  0  0  0  0  0
   -6.0242   22.1065    2.2829 C   0  0  0  0  0  0  0  0  0  0  0  0
   -7.1580   22.2448    1.4291 O   0  0  0  0  0  0  0  0  0  0  0  0
   -7.8028   23.7727   -0.3360 C   0  0  0  0  0  0  0  0  0  0  0  0
   -6.8458   22.6810    0.1086 C   0  0  0  0  0  0  0  0  0  0  0  0
   -1.7450   26.6731    5.5843 C   0  0  0  0  0  0  0  0  0  0  0  0
   -0.8672   25.9917    5.2456 N   0  0  0  0  0  0  0  0  0  0  0  0
 22 23  1  0  0  0
 23 21  1  0  0  0
 21 20  1  0  0  0
 20 19  1  0  0  0
 19 12  1  0  0  0
 12 13  1  0  0  0
 13 14  1  0  0  0
 14 15  1  0  0  0
 15  1  1  0  0  0
  1  2  2  0  0  0
  2 24  1  0  0  0
 24 25  3  0  0  0
  2  3  1  0  0  0
  3  4  2  0  0  0
  4  5  1  0  0  0
  5  6  2  0  0  0
  6  7  1  0  0  0
  6  8  1  0  0  0
  8  9  2  0  0  0
  9 10  1  0  0  0
 10 11  2  0  0  0
 15 16  1  0  0  0
 16 17  1  0  0  0
 17 18  1  0  0  0
 17 12  1  0  0  0
 11  1  1  0  0  0
 11  5  1  0  0  0
M  END
> <minimizedAffinity>
-7.78725

$$$$
OCNT-2318099


 24 27  0  0  0  0  0  0  0  0999 V2000
   -4.0782   29.3268    7.1135 C   0  0  0  0  0  0  0  0  0  0  0  0
   -4.2361   28.3464    5.9288 C   0  0  0  0  0  0  0  0  0  0  0  0
   -3.1433   27.3620    6.0413 N   0  0  0  0  0  0  0  0  0  0  0  0
   -2.1262   28.0485    6.7225 C   0  0  0  0  0  0  0  0  0  0  0  0
   -0.7913   27.6981    6.8440 C   0  0  0  0  0  0  0  0  0  0  0  0
    0.0610   28.5134    7.5962 C   0  0  0  0  0  0  0  0  0  0  0  0
   -0.4269   29.6607    8.2354 C   0  0  0  0  0  0  0  0  0  0  0  0
   -1.7728   30.0082    8.1299 C   0  0  0  0  0  0  0  0  0  0  0  0
   -2.6023   29.1992    7.3656 C   0  0  0  0  0  0  0  0  0  0  0  0
   -4.2029   31.1908    5.5126 O   0  0  0  0  0  0  0  0  0  0  0  0
   -4.5778   30.7365    6.8084 C   0  0  0  0  0  0  0  0  0  0  0  0
   -3.2327   31.1208    5.4441 H   0  0  0  0  0  0  0  0  0  0  0  0
   -2.8116   26.5288    4.8782 C   0  0  0  0  0  0  0  0  0  0  0  0
   -3.9125   25.7740    4.2050 C   0  0  0  0  0  0  0  0  0  0  0  0
   -4.2257   25.6878    2.9306 N   0  0  0  0  0  0  0  0  0  0  0  0
   -5.3232   24.8519    2.9472 C   0  0  0  0  0  0  0  0  0  0  0  0
   -5.6529   24.4152    4.1749 N   0  0  0  0  0  0  0  0  0  0  0  0
   -4.7211   25.0270    5.0085 O   0  0  0  0  0  0  0  0  0  0  0  0
   -6.0371   24.4817    1.7291 C   0  0  0  0  0  0  0  0  0  0  0  0
   -6.7039   23.2497    1.6478 C   0  0  0  0  0  0  0  0  0  0  0  0
   -7.3902   22.8854    0.4863 C   0  0  0  0  0  0  0  0  0  0  0  0
   -7.4175   23.7486   -0.6070 C   0  0  0  0  0  0  0  0  0  0  0  0
   -6.7594   24.9750   -0.5417 C   0  0  0  0  0  0  0  0  0  0  0  0
   -6.0726   25.3401    0.6196 C   0  0  0  0  0  0  0  0  0  0  0  0
 10 11  1  0  0  0
 11  1  1  0  0  0
  1  2  1  0  0  0
  2  3  1  0  0  0
  3 13  1  0  0  0
 13 14  1  0  0  0
 14 15  2  0  0  0
 15 16  1  0  0  0
 16 19  1  0  0  0
 19 20  2  0  0  0
 20 21  1  0  0  0
 21 22  2  0  0  0
 22 23  1  0  0  0
 23 24  2  0  0  0
 16 17  2  0  0  0
 17 18  1  0  0  0
  3  4  1  0  0  0
  4  5  2  0  0  0
  5  6  1  0  0  0
  6  7  2  0  0  0
  7  8  1  0  0  0
  8  9  2  0  0  0
  9  1  1  0  0  0
 18 14  1  0  0  0
  9  4  1  0  0  0
 24 19  1  0  0  0
 10 12  1  0  0  0
M  END
> <minimizedAffinity>
-9.46421

$$$$
OCNT-2318103


 22 24  0  0  0  0  0  0  0  0999 V2000
   -2.7313   27.2823    6.2589 N   0  0  0  0  0  0  0  0  0  0  0  0
   -2.1110   26.2445    5.4125 C   0  0  0  0  0  0  0  0  0  0  0  0
   -2.5254   26.3806    3.9285 C   0  0  0  0  0  0  0  0  0  0  0  0
   -3.9957   26.3509    3.7469 N   0  0  0  0  0  0  0  0  0  0  0  0
   -4.7750   26.9637    4.8639 C   0  0  0  0  0  0  0  0  0  0  0  0
   -5.9910   27.6978    4.2936 C   0  0  0  0  0  0  0  0  0  0  0  0
   -3.9018   27.9668    5.6713 C   0  0  0  0  0  0  0  0  0  0  0  0
   -1.6463   29.7923    8.5821 C   0  0  0  0  0  0  0  0  0  0  0  0
   -0.3139   29.6429    8.6627 N   0  0  0  0  0  0  0  0  0  0  0  0
    0.2087   28.6585    7.9174 C   0  0  0  0  0  0  0  0  0  0  0  0
   -0.5400   27.8464    7.0973 C   0  0  0  0  0  0  0  0  0  0  0  0
   -1.9026   28.0753    7.0501 C   0  0  0  0  0  0  0  0  0  0  0  0
   -2.4545   29.0404    7.8079 N   0  0  0  0  0  0  0  0  0  0  0  0
   -3.7993   30.7562    9.4205 C   0  0  0  0  0  0  0  0  0  0  0  0
   -2.2762   30.8809    9.4211 C   0  0  0  0  0  0  0  0  0  0  0  0
   -1.8368   32.2628    8.9385 C   0  0  0  0  0  0  0  0  0  0  0  0
   -4.4960   25.1323    3.2616 C   0  0  0  0  0  0  0  0  0  0  0  0
   -4.5284   24.8625    1.8848 C   0  0  0  0  0  0  0  0  0  0  0  0
   -4.9951   23.7113    1.3330 N   0  0  0  0  0  0  0  0  0  0  0  0
   -5.4693   22.8158    2.2197 C   0  0  0  0  0  0  0  0  0  0  0  0
   -5.4714   23.0621    3.5791 C   0  0  0  0  0  0  0  0  0  0  0  0
   -4.9927   24.2099    4.1164 N   0  0  0  0  0  0  0  0  0  0  0  0
 14 15  1  0  0  0
 15 16  1  0  0  0
 15  8  1  0  0  0
  8  9  2  0  0  0
  9 10  1  0  0  0
 10 11  2  0  0  0
 11 12  1  0  0  0
 12  1  1  0  0  0
  1  2  1  0  0  0
  2  3  1  0  0  0
  3  4  1  0  0  0
  4 17  1  0  0  0
 17 18  2  0  0  0
 18 19  1  0  0  0
 19 20  2  0  0  0
 20 21  1  0  0  0
 21 22  2  0  0  0
  4  5  1  0  0  0
  5  6  1  0  0  0
  5  7  1  0  0  0
 12 13  2  0  0  0
 13  8  1  0  0  0
  7  1  1  0  0  0
 22 17  1  0  0  0
M  END
> <minimizedAffinity>
-8.08461

$$$$
OCNT-2318112


 25 28  0  0  0  0  0  0  0  0999 V2000
   -5.5778   24.9208    0.9573 C   0  0  0  0  0  0  0  0  0  0  0  0
   -5.7302   25.5463    2.3176 C   0  0  0  0  0  0  0  0  0  0  0  0
   -5.8415   26.9384    2.4225 C   0  0  0  0  0  0  0  0  0  0  0  0
   -5.9795   27.5575    3.6699 C   0  0  0  0  0  0  0  0  0  0  0  0
   -5.9665   26.8138    4.8509 C   0  0  0  0  0  0  0  0  0  0  0  0
   -5.9010   25.4181    4.7375 C   0  0  0  0  0  0  0  0  0  0  0  0
   -5.7782   24.7735    3.4918 C   0  0  0  0  0  0  0  0  0  0  0  0
   -5.7080   23.3170    3.4468 C   0  0  0  0  0  0  0  0  0  0  0  0
   -4.6407   22.5752    3.2047 N   0  0  0  0  0  0  0  0  0  0  0  0
   -5.0538   21.2647    3.2578 N   0  0  0  0  0  0  0  0  0  0  0  0
   -6.3522   21.1835    3.5093 N   0  0  0  0  0  0  0  0  0  0  0  0
   -6.7649   22.4540    3.6128 N   0  0  0  0  0  0  0  0  0  0  0  0
   -8.1761   22.8188    3.8566 C   0  0  0  0  0  0  0  0  0  0  0  0
   -8.7095   23.0799    5.2470 C   0  0  0  0  0  0  0  0  0  0  0  0
   -9.1623   21.8662    4.4931 C   0  0  0  0  0  0  0  0  0  0  0  0
   -6.1619   27.3794    6.1225 N   0  0  0  0  0  0  0  0  0  0  0  0
   -5.6026   26.8760    6.8138 H   0  0  0  0  0  0  0  0  0  0  0  0
   -5.8521   28.8139    6.3003 C   0  0  0  0  0  0  0  0  0  0  0  0
   -7.1895   29.5548    6.4397 C   0  0  0  0  0  0  0  0  0  0  0  0
   -4.9694   29.1079    7.4899 C   0  0  0  0  0  0  0  0  0  0  0  0
   -5.3263   29.4526    8.7774 C   0  0  0  0  0  0  0  0  0  0  0  0
   -4.1463   29.6656    9.4348 N   0  0  0  0  0  0  0  0  0  0  0  0
   -3.1324   29.4429    8.5478 C   0  0  0  0  0  0  0  0  0  0  0  0
   -3.5921   29.1063    7.3653 N   0  0  0  0  0  0  0  0  0  0  0  0
   -4.0364   29.9493   10.3987 H   0  0  0  0  0  0  0  0  0  0  0  0
  1  2  1  0  0  0
  2  3  1  0  0  0
  3  4  2  0  0  0
  4  5  1  0  0  0
  5 16  1  0  0  0
 16 18  1  0  0  0
 18 19  1  0  0  0
 18 20  1  0  0  0
 20 21  2  0  0  0
 21 22  1  0  0  0
 22 23  1  0  0  0
 23 24  2  0  0  0
  5  6  2  0  0  0
  6  7  1  0  0  0
  7  8  1  0  0  0
  8  9  2  0  0  0
  9 10  1  0  0  0
 10 11  2  0  0  0
 11 12  1  0  0  0
 12 13  1  0  0  0
 13 14  1  0  0  0
 14 15  1  0  0  0
  7  2  2  0  0  0
 12  8  1  0  0  0
 15 13  1  0  0  0
 24 20  1  0  0  0
 16 17  1  0  0  0
 22 25  1  0  0  0
M  END
> <minimizedAffinity>
-8.35375

$$$$
OCNT-2318116


 28 32  0  0  0  0  0  0  0  0999 V2000
   -6.0716   28.9830    7.2345 C   0  0  0  0  0  0  0  0  0  0  0  0
   -6.5756   28.8767    5.7871 C   0  0  0  0  0  0  0  0  0  0  0  0
   -5.8224   29.7450    4.7930 C   0  0  0  0  0  0  0  0  0  0  0  0
   -6.0858   29.0168    3.4971 C   0  0  0  0  0  0  0  0  0  0  0  0
   -6.0491   27.5566    3.9205 C   0  0  0  0  0  0  0  0  0  0  0  0
   -6.4190   27.5180    5.3176 O   0  0  0  0  0  0  0  0  0  0  0  0
   -4.6974   26.9422    3.8057 C   0  0  0  0  0  0  0  0  0  0  0  0
   -3.7911   26.7564    4.7437 N   0  0  0  0  0  0  0  0  0  0  0  0
   -2.7517   26.1756    4.0667 C   0  0  0  0  0  0  0  0  0  0  0  0
   -2.9617   25.9898    2.7600 N   0  0  0  0  0  0  0  0  0  0  0  0
   -4.1977   26.4902    2.6178 N   0  0  0  0  0  0  0  0  0  0  0  0
   -4.6515   26.4894    1.7110 H   0  0  0  0  0  0  0  0  0  0  0  0
   -1.4302   25.7587    4.7649 C   0  0  0  0  0  0  0  0  0  0  0  0
   -0.7064   26.7590    5.6301 C   0  0  0  0  0  0  0  0  0  0  0  0
   -0.1303   26.3659    4.3010 C   0  0  0  0  0  0  0  0  0  0  0  0
   -4.6416   28.7675    7.4557 N   0  0  0  0  0  0  0  0  0  0  0  0
   -4.0994   29.1911    6.7054 H   0  0  0  0  0  0  0  0  0  0  0  0
   -4.1576   29.2096    8.7587 C   0  0  0  0  0  0  0  0  0  0  0  0
   -0.5566   29.8968    8.4087 C   0  0  0  0  0  0  0  0  0  0  0  0
   -0.9370   30.9852    9.0753 N   0  0  0  0  0  0  0  0  0  0  0  0
   -2.2738   30.8492    9.1926 N   0  0  0  0  0  0  0  0  0  0  0  0
   -2.7365   29.6471    8.7046 C   0  0  0  0  0  0  0  0  0  0  0  0
   -1.6321   29.0367    8.1412 C   0  0  0  0  0  0  0  0  0  0  0  0
   -3.0257   31.9118    9.8490 C   0  0  0  0  0  0  0  0  0  0  0  0
   -3.5200   33.0246    8.9356 C   0  0  0  0  0  0  0  0  0  0  0  0
   -4.5023   32.7124    7.7710 C   0  0  0  0  0  0  0  0  0  0  0  0
   -5.0648   34.1364    7.9697 C   0  0  0  0  0  0  0  0  0  0  0  0
   -4.5830   34.0442    9.4336 C   0  0  0  0  0  0  0  0  0  0  0  0
 19 20  2  0  0  0
 20 21  1  0  0  0
 21 24  1  0  0  0
 24 25  1  0  0  0
 25 26  1  0  0  0
 26 27  1  0  0  0
 27 28  1  0  0  0
 21 22  1  0  0  0
 22 18  1  0  0  0
 18 16  1  0  0  0
 16  1  1  0  0  0
  1  2  1  0  0  0
  2  3  1  0  0  0
  3  4  1  0  0  0
  4  5  1  0  0  0
  5  7  1  0  0  0
  7  8  2  0  0  0
  8  9  1  0  0  0
  9 13  1  0  0  0
 13 14  1  0  0  0
 14 15  1  0  0  0
  9 10  2  0  0  0
 10 11  1  0  0  0
  5  6  1  0  0  0
 22 23  2  0  0  0
 23 19  1  0  0  0
 28 25  1  0  0  0
  6  2  1  0  0  0
 11  7  1  0  0  0
 15 13  1  0  0  0
 16 17  1  0  0  0
 11 12  1  0  0  0
M  END
> <minimizedAffinity>
-8.82526

$$$$
OCNT-2318123


 24 26  0  0  0  0  0  0  0  0999 V2000
   -2.7882   27.4994    6.6683 N   0  0  0  0  0  0  0  0  0  0  0  0
   -2.7039   26.7441    5.5305 C   0  0  0  0  0  0  0  0  0  0  0  0
   -1.6965   26.1195    5.2128 O   0  0  0  0  0  0  0  0  0  0  0  0
   -3.8360   26.7522    4.7552 N   0  0  0  0  0  0  0  0  0  0  0  0
   -5.0477   27.5307    4.9428 C   0  0  0  0  0  0  0  0  0  0  0  0
   -5.7765   27.4331    3.6125 C   0  0  0  0  0  0  0  0  0  0  0  0
   -5.3613   26.0591    3.0802 C   0  0  0  0  0  0  0  0  0  0  0  0
   -3.8952   25.9867    3.5211 C   0  0  0  0  0  0  0  0  0  0  0  0
   -3.7127   27.6349    7.0409 H   0  0  0  0  0  0  0  0  0  0  0  0
   -1.7123   27.5174    7.6333 C   0  0  0  0  0  0  0  0  0  0  0  0
   -2.1015   30.8408    9.0980 N   0  0  0  0  0  0  0  0  0  0  0  0
   -2.6723   29.7062    8.6031 C   0  0  0  0  0  0  0  0  0  0  0  0
   -1.6345   28.8743    8.2313 C   0  0  0  0  0  0  0  0  0  0  0  0
   -0.4754   29.6142    8.5576 C   0  0  0  0  0  0  0  0  0  0  0  0
   -0.7557   30.8124    9.0747 N   0  0  0  0  0  0  0  0  0  0  0  0
   -3.6483   32.6819    8.5664 C   0  0  0  0  0  0  0  0  0  0  0  0
   -2.7927   32.0029    9.6207 C   0  0  0  0  0  0  0  0  0  0  0  0
   -5.4414   25.9889    1.6617 O   0  0  0  0  0  0  0  0  0  0  0  0
   -6.1379   24.9619    1.0913 C   0  0  0  0  0  0  0  0  0  0  0  0
   -6.6107   24.9060   -0.2143 C   0  0  0  0  0  0  0  0  0  0  0  0
   -7.3007   23.7702   -0.6127 C   0  0  0  0  0  0  0  0  0  0  0  0
   -7.5425   22.7123    0.1890 N   0  0  0  0  0  0  0  0  0  0  0  0
   -7.0743   22.7937    1.4510 C   0  0  0  0  0  0  0  0  0  0  0  0
   -6.3761   23.8839    1.9404 C   0  0  0  0  0  0  0  0  0  0  0  0
 16 17  1  0  0  0
 17 11  1  0  0  0
 11 12  1  0  0  0
 12 13  2  0  0  0
 13 10  1  0  0  0
 10  1  1  0  0  0
  1  2  1  0  0  0
  2  3  2  0  0  0
  2  4  1  0  0  0
  4  5  1  0  0  0
  5  6  1  0  0  0
  6  7  1  0  0  0
  7 18  1  0  0  0
 18 19  1  0  0  0
 19 20  2  0  0  0
 20 21  1  0  0  0
 21 22  2  0  0  0
 22 23  1  0  0  0
 23 24  2  0  0  0
  7  8  1  0  0  0
 13 14  1  0  0  0
 14 15  2  0  0  0
 15 11  1  0  0  0
  8  4  1  0  0  0
 24 19  1  0  0  0
  1  9  1  0  0  0
M  END
> <minimizedAffinity>
-8.49241

$$$$
OCNT-2318132


 24 25  0  0  0  0  0  0  0  0999 V2000
   -4.8245   31.0548    6.6123 N   0  0  0  0  0  0  0  0  0  0  0  0
   -5.1918   31.4550    5.7512 H   0  0  0  0  0  0  0  0  0  0  0  0
   -4.0562   32.0792    7.3445 C   0  0  0  0  0  0  0  0  0  0  0  0
   -2.7187   31.5264    7.8150 C   0  0  0  0  0  0  0  0  0  0  0  0
   -2.0237   30.6372    6.9710 C   0  0  0  0  0  0  0  0  0  0  0  0
   -0.7966   30.0859    7.3507 C   0  0  0  0  0  0  0  0  0  0  0  0
   -0.2417   30.4053    8.5867 C   0  0  0  0  0  0  0  0  0  0  0  0
   -0.9191   31.2701    9.4418 C   0  0  0  0  0  0  0  0  0  0  0  0
   -2.1433   31.8168    9.0568 C   0  0  0  0  0  0  0  0  0  0  0  0
   -2.7604   32.6280    9.9269 F   0  0  0  0  0  0  0  0  0  0  0  0
   -4.9557   34.3603    8.0875 C   0  0  0  0  0  0  0  0  0  0  0  0
   -4.9237   32.8593    8.3567 C   0  0  0  0  0  0  0  0  0  0  0  0
   -5.9177   30.4065    7.3658 C   0  0  0  0  0  0  0  0  0  0  0  0
   -5.2892   29.3568    8.3074 C   0  0  0  0  0  0  0  0  0  0  0  0
   -6.2912   28.5434    8.9136 O   0  0  0  0  0  0  0  0  0  0  0  0
   -5.8368   27.9973    9.5783 H   0  0  0  0  0  0  0  0  0  0  0  0
   -7.0394   29.8129    6.4678 C   0  0  0  0  0  0  0  0  0  0  0  0
   -6.6002   28.9221    5.3246 C   0  0  0  0  0  0  0  0  0  0  0  0
   -6.4490   27.5389    5.5137 C   0  0  0  0  0  0  0  0  0  0  0  0
   -6.0450   26.7212    4.4574 C   0  0  0  0  0  0  0  0  0  0  0  0
   -5.7851   27.2851    3.2145 C   0  0  0  0  0  0  0  0  0  0  0  0
   -5.3970   26.4989    2.2018 F   0  0  0  0  0  0  0  0  0  0  0  0
   -5.9167   28.6523    3.0084 C   0  0  0  0  0  0  0  0  0  0  0  0
   -6.3205   29.4712    4.0637 C   0  0  0  0  0  0  0  0  0  0  0  0
 11 12  1  0  0  0
 12  3  1  0  0  0
  3  1  1  0  0  0
  1 13  1  0  0  0
 13 14  1  0  0  0
 14 15  1  0  0  0
 13 17  1  0  0  0
 17 18  1  0  0  0
 18 19  1  0  0  0
 19 20  2  0  0  0
 20 21  1  0  0  0
 21 22  1  0  0  0
 21 23  2  0  0  0
 23 24  1  0  0  0
  3  4  1  0  0  0
  4  5  2  0  0  0
  5  6  1  0  0  0
  6  7  2  0  0  0
  7  8  1  0  0  0
  8  9  2  0  0  0
  9 10  1  0  0  0
 24 18  2  0  0  0
  9  4  1  0  0  0
  1  2  1  0  0  0
 15 16  1  0  0  0
M  END
> <minimizedAffinity>
-9.11388

$$$$
OCNT-2318133


 29 32  0  0  0  0  0  0  0  0999 V2000
   -2.5584   27.2086    5.6503 C   0  0  0  0  0  0  0  0  0  0  0  0
   -1.2901   26.9174    5.3055 N   0  0  0  0  0  0  0  0  0  0  0  0
   -1.0903   26.2486    4.1577 C   0  0  0  0  0  0  0  0  0  0  0  0
   -2.0663   25.8554    3.3244 N   0  0  0  0  0  0  0  0  0  0  0  0
   -3.3188   26.1852    3.6447 C   0  0  0  0  0  0  0  0  0  0  0  0
   -4.3401   25.8225    2.7741 C   0  0  0  0  0  0  0  0  0  0  0  0
   -5.6750   26.1556    3.0181 C   0  0  0  0  0  0  0  0  0  0  0  0
   -6.0053   26.8778    4.1550 C   0  0  0  0  0  0  0  0  0  0  0  0
   -4.9978   27.2466    5.0433 C   0  0  0  0  0  0  0  0  0  0  0  0
   -3.6440   26.8872    4.8107 C   0  0  0  0  0  0  0  0  0  0  0  0
   -1.5884   30.6687    7.8154 N   0  0  0  0  0  0  0  0  0  0  0  0
   -0.4337   29.8373    8.1796 C   0  0  0  0  0  0  0  0  0  0  0  0
   -0.4327   28.4368    7.5787 C   0  0  0  0  0  0  0  0  0  0  0  0
   -1.7094   27.6522    7.8784 C   0  0  0  0  0  0  0  0  0  0  0  0
   -2.7753   27.8541    6.8840 N   0  0  0  0  0  0  0  0  0  0  0  0
   -3.3569   29.2078    6.7859 C   0  0  0  0  0  0  0  0  0  0  0  0
   -2.3440   30.3444    6.5849 C   0  0  0  0  0  0  0  0  0  0  0  0
   -0.8823   32.1683    9.7423 N   0  0  0  0  0  0  0  0  0  0  0  0
   -2.2643   31.6807    8.9469 S   0  0  0  0  0  0  0  0  0  0  0  0
   -3.0386   30.9368    9.9049 O   0  0  0  0  0  0  0  0  0  0  0  0
   -2.7528   32.8687    8.2942 O   0  0  0  0  0  0  0  0  0  0  0  0
   -1.1350   32.3932   10.7059 H   0  0  0  0  0  0  0  0  0  0  0  0
   -0.5126   32.9932    9.2712 H   0  0  0  0  0  0  0  0  0  0  0  0
    0.2983   25.9118    3.7892 C   0  0  0  0  0  0  0  0  0  0  0  0
    0.8974   24.7085    4.1911 C   0  0  0  0  0  0  0  0  0  0  0  0
    2.2048   24.4370    3.8180 C   0  0  0  0  0  0  0  0  0  0  0  0
    2.9610   25.2703    3.0768 N   0  0  0  0  0  0  0  0  0  0  0  0
    2.3838   26.4262    2.6941 C   0  0  0  0  0  0  0  0  0  0  0  0
    1.0842   26.7830    3.0188 C   0  0  0  0  0  0  0  0  0  0  0  0
 18 19  1  0  0  0
 19 20  2  0  0  0
 19 21  2  0  0  0
 19 11  1  0  0  0
 11 12  1  0  0  0
 12 13  1  0  0  0
 13 14  1  0  0  0
 14 15  1  0  0  0
 15  1  1  0  0  0
  1  2  1  0  0  0
  2  3  2  0  0  0
  3 24  1  0  0  0
 24 25  2  0  0  0
 25 26  1  0  0  0
 26 27  2  0  0  0
 27 28  1  0  0  0
 28 29  2  0  0  0
  3  4  1  0  0  0
  4  5  2  0  0  0
  5  6  1  0  0  0
  6  7  2  0  0  0
  7  8  1  0  0  0
  8  9  2  0  0  0
  9 10  1  0  0  0
 15 16  1  0  0  0
 16 17  1  0  0  0
 17 11  1  0  0  0
 10  1  2  0  0  0
 29 24  1  0  0  0
 10  5  1  0  0  0
 18 22  1  0  0  0
 18 23  1  0  0  0
M  END
> <minimizedAffinity>
-9.49258

$$$$
OCNT-2318150


 26 29  0  0  0  0  0  0  0  0999 V2000
   -4.5876   26.5499    4.0923 N   0  0  0  0  0  0  0  0  0  0  0  0
   -3.3243   26.3704    4.6157 C   0  0  0  0  0  0  0  0  0  0  0  0
   -2.5365   25.4947    4.2698 O   0  0  0  0  0  0  0  0  0  0  0  0
   -2.9863   27.3236    5.5888 N   0  0  0  0  0  0  0  0  0  0  0  0
   -1.6346   27.2356    6.1345 C   0  0  0  0  0  0  0  0  0  0  0  0
   -1.1533   28.5887    6.6499 C   0  0  0  0  0  0  0  0  0  0  0  0
   -2.1564   29.2195    7.5796 C   0  0  0  0  0  0  0  0  0  0  0  0
   -1.7458   30.2026    8.4921 C   0  0  0  0  0  0  0  0  0  0  0  0
   -2.6769   30.8072    9.3341 C   0  0  0  0  0  0  0  0  0  0  0  0
   -2.1634   32.0063   10.4560 Cl  0  0  0  0  0  0  0  0  0  0  0  0
   -4.0203   30.4480    9.2729 C   0  0  0  0  0  0  0  0  0  0  0  0
   -4.4378   29.4802    8.3573 C   0  0  0  0  0  0  0  0  0  0  0  0
   -3.5146   28.8646    7.4962 C   0  0  0  0  0  0  0  0  0  0  0  0
   -4.0030   27.8156    6.5214 C   0  0  0  0  0  0  0  0  0  0  0  0
   -4.8995   27.5065    4.1043 H   0  0  0  0  0  0  0  0  0  0  0  0
   -5.7896   24.1954    5.2801 C   0  0  0  0  0  0  0  0  0  0  0  0
   -5.8863   24.5109    3.8102 C   0  0  0  0  0  0  0  0  0  0  0  0
   -6.5922   23.6046    2.9888 C   0  0  0  0  0  0  0  0  0  0  0  0
   -6.7141   23.8475    1.6090 C   0  0  0  0  0  0  0  0  0  0  0  0
   -6.1232   24.9904    1.0822 C   0  0  0  0  0  0  0  0  0  0  0  0
   -5.4140   25.9081    1.8687 C   0  0  0  0  0  0  0  0  0  0  0  0
   -5.3070   25.6694    3.2480 C   0  0  0  0  0  0  0  0  0  0  0  0
   -6.3825   24.9965   -0.2698 N   0  0  0  0  0  0  0  0  0  0  0  0
   -7.1167   23.8924   -0.6143 C   0  0  0  0  0  0  0  0  0  0  0  0
   -7.3373   23.1612    0.5309 C   0  0  0  0  0  0  0  0  0  0  0  0
   -6.0760   25.7196   -0.9064 H   0  0  0  0  0  0  0  0  0  0  0  0
 16 17  1  0  0  0
 17 18  1  0  0  0
 18 19  2  0  0  0
 19 20  1  0  0  0
 20 21  2  0  0  0
 21 22  1  0  0  0
 22  1  1  0  0  0
  1  2  1  0  0  0
  2  3  2  0  0  0
  2  4  1  0  0  0
  4  5  1  0  0  0
  5  6  1  0  0  0
  6  7  1  0  0  0
  7  8  1  0  0  0
  8  9  2  0  0  0
  9 10  1  0  0  0
  9 11  1  0  0  0
 11 12  2  0  0  0
 12 13  1  0  0  0
 13 14  1  0  0  0
 20 23  1  0  0  0
 23 24  1  0  0  0
 24 25  2  0  0  0
 22 17  2  0  0  0
 14  4  1  0  0  0
 25 19  1  0  0  0
 13  7  2  0  0  0
  1 15  1  0  0  0
 23 26  1  0  0  0
M  END
> <minimizedAffinity>
-9.92002

$$$$
OCNT-2318152


 29 31  0  0  0  0  0  0  0  0999 V2000
   -3.6204   25.9920    4.2449 C   0  0  0  0  0  0  0  0  0  0  0  0
   -3.6075   26.4226    5.4942 N   0  0  0  0  0  0  0  0  0  0  0  0
   -2.3036   26.5008    5.9649 C   0  0  0  0  0  0  0  0  0  0  0  0
   -1.3314   26.2188    5.0165 C   0  0  0  0  0  0  0  0  0  0  0  0
   -2.0712   25.8641    3.5155 S   0  0  0  0  0  0  0  0  0  0  0  0
   -4.7881   25.8181    3.4951 N   0  0  0  0  0  0  0  0  0  0  0  0
   -5.0078   24.5739    2.8729 C   0  0  0  0  0  0  0  0  0  0  0  0
   -4.5110   23.5265    3.2979 O   0  0  0  0  0  0  0  0  0  0  0  0
   -5.8508   24.5363    1.6836 C   0  0  0  0  0  0  0  0  0  0  0  0
   -6.8896   23.6787    1.3679 C   0  0  0  0  0  0  0  0  0  0  0  0
   -7.3509   24.0271    0.0853 C   0  0  0  0  0  0  0  0  0  0  0  0
   -6.5592   25.0743   -0.3257 C   0  0  0  0  0  0  0  0  0  0  0  0
   -5.6428   25.3833    0.6256 O   0  0  0  0  0  0  0  0  0  0  0  0
   -5.9354   26.6922    3.8051 C   0  0  0  0  0  0  0  0  0  0  0  0
   -5.8592   28.0381    3.0763 C   0  0  0  0  0  0  0  0  0  0  0  0
   -6.4186   28.5714    5.3082 C   0  0  0  0  0  0  0  0  0  0  0  0
   -6.1382   29.0843    4.0120 O   0  0  0  0  0  0  0  0  0  0  0  0
   -2.0749   26.9317    7.3760 C   0  0  0  0  0  0  0  0  0  0  0  0
   -2.1038   28.4482    7.4951 C   0  0  0  0  0  0  0  0  0  0  0  0
   -1.3971   29.1454    6.7741 O   0  0  0  0  0  0  0  0  0  0  0  0
   -2.9816   28.9006    8.4624 N   0  0  0  0  0  0  0  0  0  0  0  0
   -3.5310   28.1848    8.9309 H   0  0  0  0  0  0  0  0  0  0  0  0
   -3.3499   30.2346    8.7377 C   0  0  0  0  0  0  0  0  0  0  0  0
   -2.5436   31.1428    9.4249 C   0  0  0  0  0  0  0  0  0  0  0  0
   -2.9630   32.4677    9.6072 C   0  0  0  0  0  0  0  0  0  0  0  0
   -4.1934   32.8826    9.1141 C   0  0  0  0  0  0  0  0  0  0  0  0
   -4.7101   34.5146    9.3253 Cl  0  0  0  0  0  0  0  0  0  0  0  0
   -5.0160   31.9807    8.4528 C   0  0  0  0  0  0  0  0  0  0  0  0
   -4.5907   30.6593    8.2660 C   0  0  0  0  0  0  0  0  0  0  0  0
 16 17  1  0  0  0
 17 15  1  0  0  0
 15 14  1  0  0  0
 14  6  1  0  0  0
  6  7  1  0  0  0
  7  8  2  0  0  0
  7  9  1  0  0  0
  9 10  2  0  0  0
 10 11  1  0  0  0
 11 12  2  0  0  0
 12 13  1  0  0  0
  6  1  1  0  0  0
  1  2  2  0  0  0
  2  3  1  0  0  0
  3 18  1  0  0  0
 18 19  1  0  0  0
 19 20  2  0  0  0
 19 21  1  0  0  0
 21 23  1  0  0  0
 23 24  1  0  0  0
 24 25  2  0  0  0
 25 26  1  0  0  0
 26 27  1  0  0  0
 26 28  2  0  0  0
 28 29  1  0  0  0
  3  4  2  0  0  0
  4  5  1  0  0  0
 13  9  1  0  0  0
  5  1  1  0  0  0
 29 23  2  0  0  0
 21 22  1  0  0  0
M  END
> <minimizedAffinity>
-8.80180

$$$$
OCNT-2318156


 30 33  0  0  0  0  0  0  0  0999 V2000
   -6.5227   28.7888    7.9984 O   0  0  0  0  0  0  0  0  0  0  0  0
   -6.2548   29.5488    7.0747 C   0  0  0  0  0  0  0  0  0  0  0  0
   -6.0080   30.8937    7.2379 N   0  0  0  0  0  0  0  0  0  0  0  0
   -5.5415   31.3958    6.4850 H   0  0  0  0  0  0  0  0  0  0  0  0
   -6.1432   29.0230    5.6849 C   0  0  0  0  0  0  0  0  0  0  0  0
   -6.1707   29.8673    4.5681 C   0  0  0  0  0  0  0  0  0  0  0  0
   -6.0668   29.3298    3.2852 C   0  0  0  0  0  0  0  0  0  0  0  0
   -5.9411   27.9492    3.1127 C   0  0  0  0  0  0  0  0  0  0  0  0
   -5.9244   27.0864    4.2197 C   0  0  0  0  0  0  0  0  0  0  0  0
   -6.0315   27.6367    5.5055 C   0  0  0  0  0  0  0  0  0  0  0  0
   -5.7986   25.6426    4.0460 C   0  0  0  0  0  0  0  0  0  0  0  0
   -5.5724   24.7809    5.0516 N   0  0  0  0  0  0  0  0  0  0  0  0
   -5.5298   23.5377    4.4281 O   0  0  0  0  0  0  0  0  0  0  0  0
   -5.7338   23.7580    3.0969 C   0  0  0  0  0  0  0  0  0  0  0  0
   -5.9058   25.0355    2.8131 N   0  0  0  0  0  0  0  0  0  0  0  0
   -5.7283   22.5474    2.2391 C   0  0  0  0  0  0  0  0  0  0  0  0
   -5.1891   22.7912    1.0134 F   0  0  0  0  0  0  0  0  0  0  0  0
   -6.9833   22.0687    2.0187 F   0  0  0  0  0  0  0  0  0  0  0  0
   -5.0137   21.5217    2.7753 F   0  0  0  0  0  0  0  0  0  0  0  0
   -5.9035   31.5110    8.5487 C   0  0  0  0  0  0  0  0  0  0  0  0
   -4.8071   32.5876    8.4760 C   0  0  0  0  0  0  0  0  0  0  0  0
   -4.8724   33.6609    9.6264 C   0  0  0  0  0  0  0  0  0  0  0  0
   -4.5915   34.7352    8.5609 C   0  0  0  0  0  0  0  0  0  0  0  0
   -5.2097   33.7767    7.5273 C   0  0  0  0  0  0  0  0  0  0  0  0
   -3.3803   31.8936    8.2339 C   0  0  0  0  0  0  0  0  0  0  0  0
   -2.4346   31.6118    9.2217 C   0  0  0  0  0  0  0  0  0  0  0  0
   -1.2269   31.0103    8.8731 C   0  0  0  0  0  0  0  0  0  0  0  0
   -0.9784   30.7014    7.5442 C   0  0  0  0  0  0  0  0  0  0  0  0
   -1.9499   31.0171    6.6142 C   0  0  0  0  0  0  0  0  0  0  0  0
   -3.1248   31.6103    6.9249 N   0  0  0  0  0  0  0  0  0  0  0  0
  1  2  2  0  0  0
  2  3  1  0  0  0
  3 20  1  0  0  0
 20 21  1  0  0  0
 21 25  1  0  0  0
 25 26  2  0  0  0
 26 27  1  0  0  0
 27 28  2  0  0  0
 28 29  1  0  0  0
 29 30  2  0  0  0
 21 22  1  0  0  0
 22 23  1  0  0  0
 23 24  1  0  0  0
  2  5  1  0  0  0
  5  6  1  0  0  0
  6  7  2  0  0  0
  7  8  1  0  0  0
  8  9  2  0  0  0
  9 11  1  0  0  0
 11 12  2  0  0  0
 12 13  1  0  0  0
 13 14  1  0  0  0
 14 16  1  0  0  0
 16 17  1  0  0  0
 16 18  1  0  0  0
 16 19  1  0  0  0
 14 15  2  0  0  0
  9 10  1  0  0  0
 24 21  1  0  0  0
 10  5  2  0  0  0
 30 25  1  0  0  0
 15 11  1  0  0  0
  3  4  1  0  0  0
M  END
> <minimizedAffinity>
-10.97351

$$$$
OCNT-2318165


 26 29  0  0  0  0  0  0  0  0999 V2000
   -3.3088   30.1409    6.8833 O   0  0  0  0  0  0  0  0  0  0  0  0
   -3.5081   29.0042    7.2990 C   0  0  0  0  0  0  0  0  0  0  0  0
   -4.7659   28.5690    7.6812 N   0  0  0  0  0  0  0  0  0  0  0  0
   -4.9189   27.5916    7.8936 H   0  0  0  0  0  0  0  0  0  0  0  0
   -2.4364   27.9397    7.4312 C   0  0  0  0  0  0  0  0  0  0  0  0
   -1.0803   28.5708    7.7695 C   0  0  0  0  0  0  0  0  0  0  0  0
   -0.0227   27.8326    7.1141 O   0  0  0  0  0  0  0  0  0  0  0  0
   -0.6661   27.1736    6.1003 C   0  0  0  0  0  0  0  0  0  0  0  0
   -0.0167   26.5023    5.0842 C   0  0  0  0  0  0  0  0  0  0  0  0
   -0.7975   25.8613    4.1210 C   0  0  0  0  0  0  0  0  0  0  0  0
   -2.1989   25.8982    4.2014 C   0  0  0  0  0  0  0  0  0  0  0  0
   -2.8349   26.5727    5.2476 C   0  0  0  0  0  0  0  0  0  0  0  0
   -2.0492   27.2155    6.1904 C   0  0  0  0  0  0  0  0  0  0  0  0
   -5.9300   29.4345    7.5825 C   0  0  0  0  0  0  0  0  0  0  0  0
   -7.0200   28.8533    6.6775 C   0  0  0  0  0  0  0  0  0  0  0  0
   -6.5224   28.6010    5.2892 C   0  0  0  0  0  0  0  0  0  0  0  0
   -6.1977   29.5639    4.3536 C   0  0  0  0  0  0  0  0  0  0  0  0
   -5.7803   28.9357    3.2123 N   0  0  0  0  0  0  0  0  0  0  0  0
   -5.8207   27.5714    3.3806 C   0  0  0  0  0  0  0  0  0  0  0  0
   -5.4851   26.5427    2.4926 C   0  0  0  0  0  0  0  0  0  0  0  0
   -5.6338   25.2344    2.9492 C   0  0  0  0  0  0  0  0  0  0  0  0
   -5.3227   24.2211    2.1289 F   0  0  0  0  0  0  0  0  0  0  0  0
   -6.0949   24.9505    4.2276 C   0  0  0  0  0  0  0  0  0  0  0  0
   -6.4261   25.9909    5.1031 C   0  0  0  0  0  0  0  0  0  0  0  0
   -6.2869   27.3292    4.6750 C   0  0  0  0  0  0  0  0  0  0  0  0
   -5.4847   29.4026    2.3659 H   0  0  0  0  0  0  0  0  0  0  0  0
  1  2  2  0  0  0
  2  3  1  0  0  0
  3 14  1  0  0  0
 14 15  1  0  0  0
 15 16  1  0  0  0
 16 17  2  0  0  0
 17 18  1  0  0  0
 18 19  1  0  0  0
 19 20  2  0  0  0
 20 21  1  0  0  0
 21 22  1  0  0  0
 21 23  2  0  0  0
 23 24  1  0  0  0
 24 25  2  0  0  0
  2  5  1  0  0  0
  5  6  1  0  0  0
  6  7  1  0  0  0
  7  8  1  0  0  0
  8  9  2  0  0  0
  9 10  1  0  0  0
 10 11  2  0  0  0
 11 12  1  0  0  0
 12 13  2  0  0  0
 25 16  1  0  0  0
 13  5  1  0  0  0
 25 19  1  0  0  0
 13  8  1  0  0  0
  3  4  1  0  0  0
 18 26  1  0  0  0
M  END
> <minimizedAffinity>
-9.40396

$$$$
OCNT-2318171


 27 30  0  0  0  0  0  0  0  0999 V2000
   -6.1878   29.5511    6.8449 C   0  0  0  0  0  0  0  0  0  0  0  0
   -6.9395   28.9586    7.6156 O   0  0  0  0  0  0  0  0  0  0  0  0
   -5.0898   30.2785    7.2596 N   0  0  0  0  0  0  0  0  0  0  0  0
   -4.3999   30.4440    6.5238 H   0  0  0  0  0  0  0  0  0  0  0  0
   -4.5925   30.2009    8.6246 C   0  0  0  0  0  0  0  0  0  0  0  0
   -5.1746   31.2995    9.5286 C   0  0  0  0  0  0  0  0  0  0  0  0
   -4.9810   32.7211    9.0049 C   0  0  0  0  0  0  0  0  0  0  0  0
   -3.5998   32.9655    8.4195 C   0  0  0  0  0  0  0  0  0  0  0  0
   -2.5898   32.4340    9.2761 O   0  0  0  0  0  0  0  0  0  0  0  0
   -2.2008   31.1627    8.9435 C   0  0  0  0  0  0  0  0  0  0  0  0
   -0.8198   30.9521    8.9874 C   0  0  0  0  0  0  0  0  0  0  0  0
   -0.2953   29.7133    8.6465 C   0  0  0  0  0  0  0  0  0  0  0  0
    1.0317   29.5261    8.6726 F   0  0  0  0  0  0  0  0  0  0  0  0
   -1.1260   28.6710    8.2667 C   0  0  0  0  0  0  0  0  0  0  0  0
   -2.5069   28.8681    8.2529 C   0  0  0  0  0  0  0  0  0  0  0  0
   -3.0729   30.1103    8.6153 C   0  0  0  0  0  0  0  0  0  0  0  0
   -6.4205   29.5720    5.3441 C   0  0  0  0  0  0  0  0  0  0  0  0
   -2.0622   26.0882    5.5446 C   0  0  0  0  0  0  0  0  0  0  0  0
   -3.0887   26.0386    4.4416 C   0  0  0  0  0  0  0  0  0  0  0  0
   -2.9773   25.1217    3.4485 C   0  0  0  0  0  0  0  0  0  0  0  0
   -3.9309   25.0263    2.3526 C   0  0  0  0  0  0  0  0  0  0  0  0
   -4.9681   25.8774    2.3171 C   0  0  0  0  0  0  0  0  0  0  0  0
   -5.0969   26.8215    3.3288 N   0  0  0  0  0  0  0  0  0  0  0  0
   -6.0612   27.7802    3.5056 C   0  0  0  0  0  0  0  0  0  0  0  0
   -5.7231   28.4446    4.6657 C   0  0  0  0  0  0  0  0  0  0  0  0
   -4.5674   27.9155    5.2050 N   0  0  0  0  0  0  0  0  0  0  0  0
   -4.2066   26.9431    4.3912 C   0  0  0  0  0  0  0  0  0  0  0  0
 18 19  1  0  0  0
 19 20  2  0  0  0
 20 21  1  0  0  0
 21 22  2  0  0  0
 22 23  1  0  0  0
 23 24  1  0  0  0
 24 25  2  0  0  0
 25 17  1  0  0  0
 17  1  1  0  0  0
  1  2  2  0  0  0
  1  3  1  0  0  0
  3  5  1  0  0  0
  5  6  1  0  0  0
  6  7  1  0  0  0
  7  8  1  0  0  0
  8  9  1  0  0  0
  9 10  1  0  0  0
 10 11  1  0  0  0
 11 12  2  0  0  0
 12 13  1  0  0  0
 12 14  1  0  0  0
 14 15  2  0  0  0
 15 16  1  0  0  0
 25 26  1  0  0  0
 26 27  2  0  0  0
 27 19  1  0  0  0
 27 23  1  0  0  0
 16  5  1  0  0  0
 16 10  2  0  0  0
  3  4  1  0  0  0
M  END
> <minimizedAffinity>
-9.82715

$$$$
OCNT-2318184


 33 35  0  0  0  0  0  0  0  0999 V2000
   -5.2743   28.3984    5.8831 C   0  0  0  0  0  0  0  0  0  0  0  0
   -4.8930   27.4182    4.9646 C   0  0  0  0  0  0  0  0  0  0  0  0
   -5.2873   27.5154    3.6263 C   0  0  0  0  0  0  0  0  0  0  0  0
   -6.0515   28.6087    3.2062 C   0  0  0  0  0  0  0  0  0  0  0  0
   -6.4313   29.5891    4.1263 C   0  0  0  0  0  0  0  0  0  0  0  0
   -6.0455   29.4986    5.4727 C   0  0  0  0  0  0  0  0  0  0  0  0
   -6.4575   30.5814    6.4309 C   0  0  0  0  0  0  0  0  0  0  0  0
   -4.8413   26.4567    2.6812 C   0  0  0  0  0  0  0  0  0  0  0  0
   -3.6753   26.0807    2.6834 O   0  0  0  0  0  0  0  0  0  0  0  0
   -5.8096   25.9270    1.8562 N   0  0  0  0  0  0  0  0  0  0  0  0
   -6.7817   26.1348    2.0399 H   0  0  0  0  0  0  0  0  0  0  0  0
   -5.5130   24.8350    0.9405 C   0  0  0  0  0  0  0  0  0  0  0  0
   -6.2386   25.0182   -0.3968 C   0  0  0  0  0  0  0  0  0  0  0  0
   -5.8526   23.5158    1.5970 C   0  0  0  0  0  0  0  0  0  0  0  0
   -4.9016   22.7332    2.2628 C   0  0  0  0  0  0  0  0  0  0  0  0
   -5.2738   21.5160    2.8258 C   0  0  0  0  0  0  0  0  0  0  0  0
   -6.5904   21.1097    2.6972 C   0  0  0  0  0  0  0  0  0  0  0  0
   -7.5346   21.8260    2.0536 N   0  0  0  0  0  0  0  0  0  0  0  0
   -7.1466   23.0066    1.5196 C   0  0  0  0  0  0  0  0  0  0  0  0
   -4.8143   28.2928    7.2273 N   0  0  0  0  0  0  0  0  0  0  0  0
   -5.4796   28.4791    7.9758 H   0  0  0  0  0  0  0  0  0  0  0  0
   -3.3002   28.9579    7.6092 S   0  0  0  0  0  0  0  0  0  0  0  0
   -2.6190   29.1363    6.3426 O   0  0  0  0  0  0  0  0  0  0  0  0
   -2.6867   28.1397    8.6320 O   0  0  0  0  0  0  0  0  0  0  0  0
   -4.6896   34.5363    9.7322 C   0  0  0  0  0  0  0  0  0  0  0  0
   -4.3715   33.1704    9.2005 C   0  0  0  0  0  0  0  0  0  0  0  0
   -5.0384   32.0455    9.6865 C   0  0  0  0  0  0  0  0  0  0  0  0
   -4.7392   30.7490    9.2241 C   0  0  0  0  0  0  0  0  0  0  0  0
   -5.5345   29.6205    9.8234 C   0  0  0  0  0  0  0  0  0  0  0  0
   -3.7299   30.5889    8.2430 C   0  0  0  0  0  0  0  0  0  0  0  0
   -3.0380   31.7260    7.7477 C   0  0  0  0  0  0  0  0  0  0  0  0
   -1.9323   31.6640    6.7257 C   0  0  0  0  0  0  0  0  0  0  0  0
   -3.3657   32.9990    8.2500 C   0  0  0  0  0  0  0  0  0  0  0  0
 25 26  1  0  0  0
 26 27  2  0  0  0
 27 28  1  0  0  0
 28 29  1  0  0  0
 28 30  2  0  0  0
 30 22  1  0  0  0
 22 23  2  0  0  0
 22 24  2  0  0  0
 22 20  1  0  0  0
 20  1  1  0  0  0
  1  2  1  0  0  0
  2  3  2  0  0  0
  3  8  1  0  0  0
  8  9  2  0  0  0
  8 10  1  0  0  0
 10 12  1  0  0  0
 12 13  1  0  0  0
 12 14  1  0  0  0
 14 15  1  0  0  0
 15 16  2  0  0  0
 16 17  1  0  0  0
 17 18  2  0  0  0
 18 19  1  0  0  0
  3  4  1  0  0  0
  4  5  2  0  0  0
  5  6  1  0  0  0
  6  7  1  0  0  0
 30 31  1  0  0  0
 31 32  1  0  0  0
 31 33  2  0  0  0
 33 26  1  0  0  0
  6  1  2  0  0  0
 19 14  2  0  0  0
 20 21  1  0  0  0
 10 11  1  0  0  0
M  END
> <minimizedAffinity>
-10.40407

$$$$
OCNT-2318193


 25 28  0  0  0  0  0  0  0  0999 V2000
   -4.2985   33.4882    9.4849 C   0  0  0  0  0  0  0  0  0  0  0  0
   -3.8045   32.4286    8.6074 N   0  0  0  0  0  0  0  0  0  0  0  0
   -4.4337   32.5172    7.2769 C   0  0  0  0  0  0  0  0  0  0  0  0
   -4.0038   31.3701    6.3435 C   0  0  0  0  0  0  0  0  0  0  0  0
   -4.2565   30.0186    6.9278 N   0  0  0  0  0  0  0  0  0  0  0  0
   -3.6479   29.8875    8.2975 C   0  0  0  0  0  0  0  0  0  0  0  0
   -4.0597   31.0955    9.2011 C   0  0  0  0  0  0  0  0  0  0  0  0
   -2.1554   29.5791    8.1881 C   0  0  0  0  0  0  0  0  0  0  0  0
   -1.7502   28.5610    7.3038 C   0  0  0  0  0  0  0  0  0  0  0  0
   -0.4025   28.2296    7.1544 C   0  0  0  0  0  0  0  0  0  0  0  0
    0.5656   28.9136    7.8834 C   0  0  0  0  0  0  0  0  0  0  0  0
    0.1853   29.9290    8.7575 C   0  0  0  0  0  0  0  0  0  0  0  0
   -1.1642   30.2611    8.9079 C   0  0  0  0  0  0  0  0  0  0  0  0
   -5.8305   29.4071    6.8041 S   0  0  0  0  0  0  0  0  0  0  0  0
   -6.7110   30.4538    6.3351 O   0  0  0  0  0  0  0  0  0  0  0  0
   -6.1203   28.6737    8.0195 O   0  0  0  0  0  0  0  0  0  0  0  0
   -5.8361   28.1572    5.5188 C   0  0  0  0  0  0  0  0  0  0  0  0
   -5.6689   28.2736    4.1426 C   0  0  0  0  0  0  0  0  0  0  0  0
   -5.7713   26.9788    3.5792 C   0  0  0  0  0  0  0  0  0  0  0  0
   -5.6962   26.4339    2.2857 C   0  0  0  0  0  0  0  0  0  0  0  0
   -5.8547   25.0491    2.1304 C   0  0  0  0  0  0  0  0  0  0  0  0
   -6.0824   24.2217    3.2334 C   0  0  0  0  0  0  0  0  0  0  0  0
   -6.1602   24.7474    4.5273 C   0  0  0  0  0  0  0  0  0  0  0  0
   -5.9992   26.1255    4.6479 C   0  0  0  0  0  0  0  0  0  0  0  0
   -6.0429   26.8232    5.8118 O   0  0  0  0  0  0  0  0  0  0  0  0
  1  2  1  0  0  0
  2  3  1  0  0  0
  3  4  1  0  0  0
  4  5  1  0  0  0
  5 14  1  0  0  0
 14 15  2  0  0  0
 14 16  2  0  0  0
 14 17  1  0  0  0
 17 18  2  0  0  0
 18 19  1  0  0  0
 19 20  2  0  0  0
 20 21  1  0  0  0
 21 22  2  0  0  0
 22 23  1  0  0  0
 23 24  2  0  0  0
 24 25  1  0  0  0
  5  6  1  0  0  0
  6  8  1  0  0  0
  8  9  2  0  0  0
  9 10  1  0  0  0
 10 11  2  0  0  0
 11 12  1  0  0  0
 12 13  2  0  0  0
  6  7  1  0  0  0
  7  2  1  0  0  0
 25 17  1  0  0  0
 13  8  1  0  0  0
 24 19  1  0  0  0
M  END
> <minimizedAffinity>
-9.60606

$$$$
OCNT-2318205


 27 29  0  0  0  0  0  0  0  0999 V2000
   -5.1270   29.8437    6.0180 N   0  0  0  0  0  0  0  0  0  0  0  0
   -5.7822   30.1874    7.1773 C   0  0  0  0  0  0  0  0  0  0  0  0
   -6.7360   29.5966    7.6716 O   0  0  0  0  0  0  0  0  0  0  0  0
   -5.2728   31.3101    7.7780 N   0  0  0  0  0  0  0  0  0  0  0  0
   -5.6074   31.8476    9.0831 C   0  0  0  0  0  0  0  0  0  0  0  0
   -4.5170   32.8935    8.8454 C   0  0  0  0  0  0  0  0  0  0  0  0
   -4.0460   32.0801    7.6214 C   0  0  0  0  0  0  0  0  0  0  0  0
   -4.4607   30.5232    5.6878 H   0  0  0  0  0  0  0  0  0  0  0  0
   -5.3844   26.3035    4.7695 C   0  0  0  0  0  0  0  0  0  0  0  0
   -5.1862   27.3858    5.6448 C   0  0  0  0  0  0  0  0  0  0  0  0
   -5.3185   28.7085    5.2047 C   0  0  0  0  0  0  0  0  0  0  0  0
   -5.6432   28.9488    3.8677 C   0  0  0  0  0  0  0  0  0  0  0  0
   -5.8569   27.8886    2.9889 C   0  0  0  0  0  0  0  0  0  0  0  0
   -5.7352   26.5607    3.4248 C   0  0  0  0  0  0  0  0  0  0  0  0
   -5.9756   25.4618    2.4239 C   0  0  0  0  0  0  0  0  0  0  0  0
   -5.6948   22.6837    5.8164 C   0  0  0  0  0  0  0  0  0  0  0  0
   -6.2543   24.0350    5.4418 C   0  0  0  0  0  0  0  0  0  0  0  0
   -7.4643   24.2130    5.3924 O   0  0  0  0  0  0  0  0  0  0  0  0
   -5.2531   24.9533    5.1796 N   0  0  0  0  0  0  0  0  0  0  0  0
   -4.3107   24.6268    5.3369 H   0  0  0  0  0  0  0  0  0  0  0  0
   -2.6511   31.3203    7.7253 C   0  0  0  0  0  0  0  0  0  0  0  0
   -2.0109   31.0483    8.9558 C   0  0  0  0  0  0  0  0  0  0  0  0
   -0.7871   30.3759    9.0238 C   0  0  0  0  0  0  0  0  0  0  0  0
   -0.1694   29.9631    7.8540 C   0  0  0  0  0  0  0  0  0  0  0  0
    1.0034   29.3196    7.9137 F   0  0  0  0  0  0  0  0  0  0  0  0
   -0.7537   30.2104    6.6209 C   0  0  0  0  0  0  0  0  0  0  0  0
   -1.9790   30.8815    6.5624 C   0  0  0  0  0  0  0  0  0  0  0  0
 16 17  1  0  0  0
 17 18  2  0  0  0
 17 19  1  0  0  0
 19  9  1  0  0  0
  9 10  1  0  0  0
 10 11  2  0  0  0
 11  1  1  0  0  0
  1  2  1  0  0  0
  2  3  2  0  0  0
  2  4  1  0  0  0
  4  5  1  0  0  0
  5  6  1  0  0  0
  6  7  1  0  0  0
  7 21  1  0  0  0
 21 22  1  0  0  0
 22 23  2  0  0  0
 23 24  1  0  0  0
 24 25  1  0  0  0
 24 26  2  0  0  0
 26 27  1  0  0  0
 11 12  1  0  0  0
 12 13  2  0  0  0
 13 14  1  0  0  0
 14 15  1  0  0  0
 14  9  2  0  0  0
  7  4  1  0  0  0
 27 21  2  0  0  0
 19 20  1  0  0  0
  1  8  1  0  0  0
M  END
> <minimizedAffinity>
-9.87866

$$$$
OCNT-2318213


 30 33  0  0  0  0  0  0  0  0999 V2000
   -3.3542   25.7164    3.9364 C   0  0  0  0  0  0  0  0  0  0  0  0
   -3.6657   26.0567    5.2525 C   0  0  0  0  0  0  0  0  0  0  0  0
   -2.6640   26.4858    6.1323 C   0  0  0  0  0  0  0  0  0  0  0  0
   -1.3234   26.5796    5.7273 C   0  0  0  0  0  0  0  0  0  0  0  0
   -0.9912   26.2611    4.3945 C   0  0  0  0  0  0  0  0  0  0  0  0
   -2.0098   25.8227    3.5239 C   0  0  0  0  0  0  0  0  0  0  0  0
   -5.8844   27.2795    2.6251 C   0  0  0  0  0  0  0  0  0  0  0  0
   -5.4351   25.8829    2.4132 C   0  0  0  0  0  0  0  0  0  0  0  0
   -6.0317   24.9424    1.5949 C   0  0  0  0  0  0  0  0  0  0  0  0
   -5.2418   23.7916    1.6987 C   0  0  0  0  0  0  0  0  0  0  0  0
   -5.4324   22.4817    1.0325 C   0  0  0  0  0  0  0  0  0  0  0  0
   -4.2065   23.9839    2.5128 N   0  0  0  0  0  0  0  0  0  0  0  0
   -4.3272   25.2591    2.9853 N   0  0  0  0  0  0  0  0  0  0  0  0
    0.4260   26.3811    3.8795 C   0  0  0  0  0  0  0  0  0  0  0  0
    0.5223   26.4816    2.5255 F   0  0  0  0  0  0  0  0  0  0  0  0
    1.2000   25.3176    4.2300 F   0  0  0  0  0  0  0  0  0  0  0  0
    1.0660   27.4825    4.3704 F   0  0  0  0  0  0  0  0  0  0  0  0
   -0.2967   27.0758    6.7216 C   0  0  0  0  0  0  0  0  0  0  0  0
   -0.8783   28.0613    7.5966 N   0  0  0  0  0  0  0  0  0  0  0  0
   -0.2774   29.2731    7.8068 C   0  0  0  0  0  0  0  0  0  0  0  0
    0.6623   29.7114    7.1600 O   0  0  0  0  0  0  0  0  0  0  0  0
   -1.6048   27.7636    8.2358 H   0  0  0  0  0  0  0  0  0  0  0  0
   -0.8810   30.0675    8.9073 C   0  0  0  0  0  0  0  0  0  0  0  0
   -0.7003   31.5663    8.9805 C   0  0  0  0  0  0  0  0  0  0  0  0
   -2.0664   30.9994    8.6515 C   0  0  0  0  0  0  0  0  0  0  0  0
   -3.1465   31.1096    9.7143 C   0  0  0  0  0  0  0  0  0  0  0  0
   -4.5060   30.7540    9.1158 C   0  0  0  0  0  0  0  0  0  0  0  0
   -4.8897   31.6357    8.0560 O   0  0  0  0  0  0  0  0  0  0  0  0
   -3.8028   32.1138    7.2531 C   0  0  0  0  0  0  0  0  0  0  0  0
   -2.6029   31.1705    7.2370 C   0  0  0  0  0  0  0  0  0  0  0  0
  7  8  1  0  0  0
  8  9  2  0  0  0
  9 10  1  0  0  0
 10 11  1  0  0  0
 10 12  2  0  0  0
 12 13  1  0  0  0
 13  1  1  0  0  0
  1  2  1  0  0  0
  2  3  2  0  0  0
  3  4  1  0  0  0
  4 18  1  0  0  0
 18 19  1  0  0  0
 19 20  1  0  0  0
 20 21  2  0  0  0
 20 23  1  0  0  0
 23 24  1  0  0  0
 24 25  1  0  0  0
 25 26  1  0  0  0
 26 27  1  0  0  0
 27 28  1  0  0  0
 28 29  1  0  0  0
 29 30  1  0  0  0
  4  5  2  0  0  0
  5 14  1  0  0  0
 14 15  1  0  0  0
 14 16  1  0  0  0
 14 17  1  0  0  0
  5  6  1  0  0  0
 13  8  1  0  0  0
  6  1  2  0  0  0
 25 23  1  0  0  0
 30 25  1  0  0  0
 19 22  1  0  0  0
M  END
> <minimizedAffinity>
-10.18108

$$$$
OCNT-2318216


 28 31  0  0  0  0  0  0  0  0999 V2000
   -5.1450   25.7973    5.0152 O   0  0  0  0  0  0  0  0  0  0  0  0
   -4.0810   26.3510    4.7416 C   0  0  0  0  0  0  0  0  0  0  0  0
   -3.4590   26.0935    3.5355 N   0  0  0  0  0  0  0  0  0  0  0  0
   -2.6527   26.6485    3.2782 H   0  0  0  0  0  0  0  0  0  0  0  0
   -4.0599   25.2383    2.5161 C   0  0  0  0  0  0  0  0  0  0  0  0
   -5.4176   25.8326    2.0605 C   0  0  0  0  0  0  0  0  0  0  0  0
   -6.0660   25.0196    0.9218 C   0  0  0  0  0  0  0  0  0  0  0  0
   -5.9894   23.5675    1.2099 C   0  0  0  0  0  0  0  0  0  0  0  0
   -5.1347   23.0300    2.1438 C   0  0  0  0  0  0  0  0  0  0  0  0
   -4.2035   23.7747    3.0254 C   0  0  0  0  0  0  0  0  0  0  0  0
   -5.3216   21.6821    2.1140 N   0  0  0  0  0  0  0  0  0  0  0  0
   -6.2594   21.3077    1.2227 N   0  0  0  0  0  0  0  0  0  0  0  0
   -6.6591   22.4575    0.6683 C   0  0  0  0  0  0  0  0  0  0  0  0
   -4.8604   20.9628    2.6619 H   0  0  0  0  0  0  0  0  0  0  0  0
   -3.4099   27.3009    5.6245 C   0  0  0  0  0  0  0  0  0  0  0  0
   -2.1093   27.3810    6.0899 C   0  0  0  0  0  0  0  0  0  0  0  0
   -0.8279   26.2903    5.7121 Cl  0  0  0  0  0  0  0  0  0  0  0  0
   -1.8777   28.5080    6.9636 C   0  0  0  0  0  0  0  0  0  0  0  0
   -0.7103   28.9439    7.6443 C   0  0  0  0  0  0  0  0  0  0  0  0
   -0.7327   30.0888    8.4494 C   0  0  0  0  0  0  0  0  0  0  0  0
   -1.9024   30.8344    8.5972 C   0  0  0  0  0  0  0  0  0  0  0  0
   -3.0703   30.4152    7.9401 C   0  0  0  0  0  0  0  0  0  0  0  0
   -3.0391   29.2606    7.1306 C   0  0  0  0  0  0  0  0  0  0  0  0
   -4.3489   28.5974    6.2464 S   0  0  0  0  0  0  0  0  0  0  0  0
   -1.9287   32.0564    9.4849 C   0  0  0  0  0  0  0  0  0  0  0  0
   -0.7463   32.7300    9.4700 F   0  0  0  0  0  0  0  0  0  0  0  0
   -2.1775   31.7616   10.7910 F   0  0  0  0  0  0  0  0  0  0  0  0
   -2.8804   32.9604    9.1206 F   0  0  0  0  0  0  0  0  0  0  0  0
  1  2  2  0  0  0
  2  3  1  0  0  0
  3  5  1  0  0  0
  5  6  1  0  0  0
  6  7  1  0  0  0
  7  8  1  0  0  0
  8  9  2  0  0  0
  9 10  1  0  0  0
  9 11  1  0  0  0
 11 12  1  0  0  0
 12 13  2  0  0  0
  2 15  1  0  0  0
 15 16  2  0  0  0
 16 17  1  0  0  0
 16 18  1  0  0  0
 18 19  2  0  0  0
 19 20  1  0  0  0
 20 21  2  0  0  0
 21 25  1  0  0  0
 25 26  1  0  0  0
 25 27  1  0  0  0
 25 28  1  0  0  0
 21 22  1  0  0  0
 22 23  2  0  0  0
 23 24  1  0  0  0
 10  5  1  0  0  0
 24 15  1  0  0  0
 13  8  1  0  0  0
 23 18  1  0  0  0
  3  4  1  0  0  0
 11 14  1  0  0  0
M  END
> <minimizedAffinity>
-9.93498

$$$$
OCNT-2318220


 34 37  0  0  0  0  0  0  0  0999 V2000
   -3.5515   29.0705    6.9020 C   0  0  0  0  0  0  0  0  0  0  0  0
   -3.1653   28.1782    5.8796 C   0  0  0  0  0  0  0  0  0  0  0  0
   -2.1659   27.2211    6.0975 C   0  0  0  0  0  0  0  0  0  0  0  0
   -1.5131   27.2169    7.3337 C   0  0  0  0  0  0  0  0  0  0  0  0
   -1.8651   28.1378    8.3294 C   0  0  0  0  0  0  0  0  0  0  0  0
   -2.8884   29.0841    8.1429 C   0  0  0  0  0  0  0  0  0  0  0  0
   -1.7965   26.2434    5.0096 C   0  0  0  0  0  0  0  0  0  0  0  0
   -0.5612   25.7004    5.2077 F   0  0  0  0  0  0  0  0  0  0  0  0
   -1.7576   26.7997    3.7669 F   0  0  0  0  0  0  0  0  0  0  0  0
   -2.6605   25.1954    4.9285 F   0  0  0  0  0  0  0  0  0  0  0  0
   -4.9191   30.1629    6.5449 S   0  0  0  0  0  0  0  0  0  0  0  0
   -5.7211   30.2963    7.7441 O   0  0  0  0  0  0  0  0  0  0  0  0
   -4.3772   31.3349    5.8858 O   0  0  0  0  0  0  0  0  0  0  0  0
   -5.9080   26.9312    3.5889 C   0  0  0  0  0  0  0  0  0  0  0  0
   -5.7577   26.8434    5.1228 C   0  0  0  0  0  0  0  0  0  0  0  0
   -6.4408   28.0030    5.8384 C   0  0  0  0  0  0  0  0  0  0  0  0
   -5.8377   29.2907    5.4117 N   0  0  0  0  0  0  0  0  0  0  0  0
   -5.4577   29.4022    3.9825 C   0  0  0  0  0  0  0  0  0  0  0  0
   -6.2005   28.3745    3.1376 C   0  0  0  0  0  0  0  0  0  0  0  0
   -4.6680   26.3606    2.8699 C   0  0  0  0  0  0  0  0  0  0  0  0
   -6.6081   23.4098    1.5079 C   0  0  0  0  0  0  0  0  0  0  0  0
   -6.1579   24.5526    2.2617 N   0  0  0  0  0  0  0  0  0  0  0  0
   -4.9914   25.2097    1.9287 C   0  0  0  0  0  0  0  0  0  0  0  0
   -4.3036   24.9213    0.9597 O   0  0  0  0  0  0  0  0  0  0  0  0
   -6.5740   24.7247    3.1691 H   0  0  0  0  0  0  0  0  0  0  0  0
   -3.1842   30.0009    9.1694 N   0  0  0  0  0  0  0  0  0  0  0  0
   -4.1020   29.8761    9.6276 H   0  0  0  0  0  0  0  0  0  0  0  0
   -2.3384   31.0096    9.7423 C   0  0  0  0  0  0  0  0  0  0  0  0
   -1.0486   31.2456    8.9206 C   0  0  0  0  0  0  0  0  0  0  0  0
   -1.8060   32.3398    8.1442 C   0  0  0  0  0  0  0  0  0  0  0  0
   -2.7488   32.4706    9.3681 C   0  0  0  0  0  0  0  0  0  0  0  0
   -4.2019   32.8639    9.2132 C   0  0  0  0  0  0  0  0  0  0  0  0
   -4.7202   34.2010    9.6785 C   0  0  0  0  0  0  0  0  0  0  0  0
   -4.7393   33.8524    8.2160 C   0  0  0  0  0  0  0  0  0  0  0  0
 21 22  1  0  0  0
 22 23  1  0  0  0
 23 24  2  0  0  0
 23 20  1  0  0  0
 20 14  1  0  0  0
 14 15  1  0  0  0
 15 16  1  0  0  0
 16 17  1  0  0  0
 17 11  1  0  0  0
 11 12  2  0  0  0
 11 13  2  0  0  0
 11  1  1  0  0  0
  1  2  1  0  0  0
  2  3  2  0  0  0
  3  7  1  0  0  0
  7  8  1  0  0  0
  7  9  1  0  0  0
  7 10  1  0  0  0
  3  4  1  0  0  0
  4  5  2  0  0  0
  5  6  1  0  0  0
  6 26  1  0  0  0
 26 28  1  0  0  0
 28 29  1  0  0  0
 29 30  1  0  0  0
 30 31  1  0  0  0
 31 32  1  0  0  0
 32 33  1  0  0  0
 33 34  1  0  0  0
 17 18  1  0  0  0
 18 19  1  0  0  0
 19 14  1  0  0  0
  6  1  2  0  0  0
 31 28  1  0  0  0
 34 32  1  0  0  0
 22 25  1  0  0  0
 26 27  1  0  0  0
M  END
> <minimizedAffinity>
-9.87199

$$$$
OCNT-2318230


 22 25  0  0  0  0  0  0  0  0999 V2000
   -4.8988   26.7925    2.9731 C   0  0  0  0  0  0  0  0  0  0  0  0
   -5.9741   27.8439    3.1165 C   0  0  0  0  0  0  0  0  0  0  0  0
   -5.5157   27.0822    4.3284 C   0  0  0  0  0  0  0  0  0  0  0  0
   -5.9795   21.9035    0.3281 F   0  0  0  0  0  0  0  0  0  0  0  0
   -5.7230   23.0582    0.9560 C   0  0  0  0  0  0  0  0  0  0  0  0
   -6.2723   24.2386    0.4695 C   0  0  0  0  0  0  0  0  0  0  0  0
   -6.0082   25.4456    1.1236 C   0  0  0  0  0  0  0  0  0  0  0  0
   -5.1996   25.4874    2.2738 C   0  0  0  0  0  0  0  0  0  0  0  0
   -4.6585   24.2684    2.7207 C   0  0  0  0  0  0  0  0  0  0  0  0
   -3.8706   24.2601    3.8072 F   0  0  0  0  0  0  0  0  0  0  0  0
   -4.9128   23.0602    2.0799 C   0  0  0  0  0  0  0  0  0  0  0  0
   -4.6407   27.7893    5.3989 C   0  0  0  0  0  0  0  0  0  0  0  0
   -4.9803   28.9124    5.9918 N   0  0  0  0  0  0  0  0  0  0  0  0
   -3.9284   29.1245    6.8484 C   0  0  0  0  0  0  0  0  0  0  0  0
   -2.9563   28.2037    6.7783 N   0  0  0  0  0  0  0  0  0  0  0  0
   -3.4345   27.3061    5.8214 O   0  0  0  0  0  0  0  0  0  0  0  0
   -3.8459   30.2968    7.7482 C   0  0  0  0  0  0  0  0  0  0  0  0
   -4.8873   30.2505    8.7555 N   0  0  0  0  0  0  0  0  0  0  0  0
   -5.8517   31.1809    9.0045 C   0  0  0  0  0  0  0  0  0  0  0  0
   -6.6631   30.7356    9.9362 N   0  0  0  0  0  0  0  0  0  0  0  0
   -6.1571   29.4998   10.2196 C   0  0  0  0  0  0  0  0  0  0  0  0
   -5.0834   29.1462    9.5078 N   0  0  0  0  0  0  0  0  0  0  0  0
  4  5  1  0  0  0
  5  6  1  0  0  0
  6  7  2  0  0  0
  7  8  1  0  0  0
  8  1  1  0  0  0
  1  2  1  0  0  0
  2  3  1  0  0  0
  3 12  1  0  0  0
 12 13  2  0  0  0
 13 14  1  0  0  0
 14 17  1  0  0  0
 17 18  1  0  0  0
 18 19  1  0  0  0
 19 20  2  0  0  0
 20 21  1  0  0  0
 21 22  2  0  0  0
 14 15  2  0  0  0
 15 16  1  0  0  0
  8  9  2  0  0  0
  9 10  1  0  0  0
  9 11  1  0  0  0
 11  5  2  0  0  0
  3  1  1  0  0  0
 16 12  1  0  0  0
 22 18  1  0  0  0
M  END
> <minimizedAffinity>
-8.30891

$$$$
OCNT-2318232


 24 26  0  0  0  0  0  0  0  0999 V2000
   -0.4692   28.3528    7.1474 C   0  0  0  0  0  0  0  0  0  0  0  0
    0.6849   28.6779    7.8668 C   0  0  0  0  0  0  0  0  0  0  0  0
    0.6824   29.7175    8.7992 C   0  0  0  0  0  0  0  0  0  0  0  0
   -0.4899   30.4262    9.0522 C   0  0  0  0  0  0  0  0  0  0  0  0
   -1.6793   30.0966    8.3931 C   0  0  0  0  0  0  0  0  0  0  0  0
   -1.6511   29.0534    7.4513 C   0  0  0  0  0  0  0  0  0  0  0  0
   -2.9012   30.8458    8.7095 C   0  0  0  0  0  0  0  0  0  0  0  0
   -4.0903   30.3228    8.9523 N   0  0  0  0  0  0  0  0  0  0  0  0
   -4.9455   31.3708    9.1952 C   0  0  0  0  0  0  0  0  0  0  0  0
   -6.3690   31.1214    9.5137 C   0  0  0  0  0  0  0  0  0  0  0  0
   -4.2732   32.5700    9.0866 C   0  0  0  0  0  0  0  0  0  0  0  0
   -4.7047   33.9754    9.2427 C   0  0  0  0  0  0  0  0  0  0  0  0
   -2.9833   32.2179    8.7783 N   0  0  0  0  0  0  0  0  0  0  0  0
   -2.2221   32.8573    8.6096 H   0  0  0  0  0  0  0  0  0  0  0  0
   -0.5488   27.2819    6.2481 N   0  0  0  0  0  0  0  0  0  0  0  0
    0.3185   26.7495    6.2228 H   0  0  0  0  0  0  0  0  0  0  0  0
   -1.7025   26.3775    6.3000 C   0  0  0  0  0  0  0  0  0  0  0  0
   -4.1891   26.7252    3.6781 N   0  0  0  0  0  0  0  0  0  0  0  0
   -3.8920   26.8946    4.9952 C   0  0  0  0  0  0  0  0  0  0  0  0
   -2.5942   26.4396    5.1034 C   0  0  0  0  0  0  0  0  0  0  0  0
   -2.1610   26.0298    3.8679 N   0  0  0  0  0  0  0  0  0  0  0  0
   -3.1494   26.2093    3.0018 N   0  0  0  0  0  0  0  0  0  0  0  0
   -5.9548   28.4120    3.3749 C   0  0  0  0  0  0  0  0  0  0  0  0
   -5.4231   27.0416    2.9955 C   0  0  0  0  0  0  0  0  0  0  0  0
 23 24  1  0  0  0
 24 18  1  0  0  0
 18 19  1  0  0  0
 19 20  2  0  0  0
 20 17  1  0  0  0
 17 15  1  0  0  0
 15  1  1  0  0  0
  1  2  2  0  0  0
  2  3  1  0  0  0
  3  4  2  0  0  0
  4  5  1  0  0  0
  5  7  1  0  0  0
  7  8  2  0  0  0
  8  9  1  0  0  0
  9 10  1  0  0  0
  9 11  2  0  0  0
 11 12  1  0  0  0
 11 13  1  0  0  0
  5  6  2  0  0  0
 20 21  1  0  0  0
 21 22  2  0  0  0
 22 18  1  0  0  0
  6  1  1  0  0  0
 13  7  1  0  0  0
 15 16  1  0  0  0
 13 14  1  0  0  0
M  END
> <minimizedAffinity>
-8.70555

$$$$
OCNT-2318260


 32 34  0  0  0  0  0  0  0  0999 V2000
   -5.1561   28.4030    6.2069 N   0  0  0  0  0  0  0  0  0  0  0  0
   -5.0791   29.7686    6.0790 C   0  0  0  0  0  0  0  0  0  0  0  0
   -5.0152   30.3535    5.0009 O   0  0  0  0  0  0  0  0  0  0  0  0
   -5.2184   28.0423    7.1543 H   0  0  0  0  0  0  0  0  0  0  0  0
   -5.0941   30.4632    7.3727 C   0  0  0  0  0  0  0  0  0  0  0  0
   -3.9925   31.1308    7.9127 C   0  0  0  0  0  0  0  0  0  0  0  0
   -4.4853   31.8669    9.3940 S   0  0  0  0  0  0  0  0  0  0  0  0
   -6.0430   31.1908    9.2317 C   0  0  0  0  0  0  0  0  0  0  0  0
   -6.2628   30.4847    8.1484 N   0  0  0  0  0  0  0  0  0  0  0  0
   -2.7672   31.2657    7.3274 N   0  0  0  0  0  0  0  0  0  0  0  0
   -2.7420   31.7790    6.4404 H   0  0  0  0  0  0  0  0  0  0  0  0
   -1.5609   30.5712    7.5517 C   0  0  0  0  0  0  0  0  0  0  0  0
   -0.8721   30.0734    6.4332 C   0  0  0  0  0  0  0  0  0  0  0  0
    0.3487   29.4063    6.5682 C   0  0  0  0  0  0  0  0  0  0  0  0
    0.9060   29.2286    7.8302 C   0  0  0  0  0  0  0  0  0  0  0  0
    0.2412   29.7171    8.9512 C   0  0  0  0  0  0  0  0  0  0  0  0
   -0.9801   30.3860    8.8104 C   0  0  0  0  0  0  0  0  0  0  0  0
   -6.2463   26.4042    5.2731 C   0  0  0  0  0  0  0  0  0  0  0  0
   -5.1947   27.5004    5.0763 C   0  0  0  0  0  0  0  0  0  0  0  0
   -3.8101   26.9300    4.8285 C   0  0  0  0  0  0  0  0  0  0  0  0
   -2.8703   26.9023    5.8681 C   0  0  0  0  0  0  0  0  0  0  0  0
   -1.5904   26.3703    5.6692 C   0  0  0  0  0  0  0  0  0  0  0  0
   -1.2245   25.8511    4.4281 C   0  0  0  0  0  0  0  0  0  0  0  0
   -2.1623   25.8607    3.3902 C   0  0  0  0  0  0  0  0  0  0  0  0
   -3.4416   26.3921    3.5871 C   0  0  0  0  0  0  0  0  0  0  0  0
    0.0388   25.2930    4.1548 N   0  0  0  0  0  0  0  0  0  0  0  0
    1.1629   25.9431    3.7224 C   0  0  0  0  0  0  0  0  0  0  0  0
    2.2319   25.0968    3.6372 N   0  0  0  0  0  0  0  0  0  0  0  0
    1.2976   27.1184    3.4184 O   0  0  0  0  0  0  0  0  0  0  0  0
    0.0999   24.2862    4.1410 H   0  0  0  0  0  0  0  0  0  0  0  0
    2.3461   24.4496    4.4038 H   0  0  0  0  0  0  0  0  0  0  0  0
    3.0831   25.5963    3.4058 H   0  0  0  0  0  0  0  0  0  0  0  0
 18 19  1  0  0  0
 19  1  1  0  0  0
  1  2  1  0  0  0
  2  3  2  0  0  0
  2  5  1  0  0  0
  5  6  2  0  0  0
  6 10  1  0  0  0
 10 12  1  0  0  0
 12 13  2  0  0  0
 13 14  1  0  0  0
 14 15  2  0  0  0
 15 16  1  0  0  0
 16 17  2  0  0  0
  6  7  1  0  0  0
  7  8  1  0  0  0
  8  9  2  0  0  0
 19 20  1  0  0  0
 20 21  1  0  0  0
 21 22  2  0  0  0
 22 23  1  0  0  0
 23 26  1  0  0  0
 26 27  1  0  0  0
 27 28  1  0  0  0
 27 29  2  0  0  0
 23 24  2  0  0  0
 24 25  1  0  0  0
  9  5  1  0  0  0
 25 20  2  0  0  0
 17 12  1  0  0  0
  1  4  1  0  0  0
 10 11  1  0  0  0
 26 30  1  0  0  0
 28 31  1  0  0  0
 28 32  1  0  0  0
M  END
> <minimizedAffinity>
-9.15107

$$$$
OCNT-2318272


 27 29  0  0  0  0  0  0  0  0999 V2000
   -5.9467   27.4031    3.5164 C   0  0  0  0  0  0  0  0  0  0  0  0
   -6.1199   27.0314    4.8570 C   0  0  0  0  0  0  0  0  0  0  0  0
   -6.2983   27.9998    5.8491 C   0  0  0  0  0  0  0  0  0  0  0  0
   -6.2899   29.3504    5.5107 C   0  0  0  0  0  0  0  0  0  0  0  0
   -6.1424   29.7318    4.1774 C   0  0  0  0  0  0  0  0  0  0  0  0
   -5.9623   28.7599    3.1860 C   0  0  0  0  0  0  0  0  0  0  0  0
   -3.4667   26.0127    2.6453 O   0  0  0  0  0  0  0  0  0  0  0  0
   -4.5838   25.7373    2.2234 C   0  0  0  0  0  0  0  0  0  0  0  0
   -5.7695   26.3629    2.5805 N   0  0  0  0  0  0  0  0  0  0  0  0
   -6.6094   26.0467    2.1126 H   0  0  0  0  0  0  0  0  0  0  0  0
   -4.8026   24.6585    1.1704 C   0  0  0  0  0  0  0  0  0  0  0  0
   -6.0348   24.8952    0.2946 C   0  0  0  0  0  0  0  0  0  0  0  0
   -6.7776   23.5660    0.2766 C   0  0  0  0  0  0  0  0  0  0  0  0
   -5.8087   22.5710    0.7398 N   0  0  0  0  0  0  0  0  0  0  0  0
   -5.0413   23.2813    1.7740 C   0  0  0  0  0  0  0  0  0  0  0  0
   -5.1824   22.3303   -0.0292 H   0  0  0  0  0  0  0  0  0  0  0  0
   -6.5052   30.2503    6.5285 O   0  0  0  0  0  0  0  0  0  0  0  0
   -5.5336   30.3594    7.4970 C   0  0  0  0  0  0  0  0  0  0  0  0
   -5.7671   30.0551    8.8395 C   0  0  0  0  0  0  0  0  0  0  0  0
   -4.7466   30.2206    9.7753 C   0  0  0  0  0  0  0  0  0  0  0  0
   -3.5012   30.7076    9.3733 C   0  0  0  0  0  0  0  0  0  0  0  0
   -3.2666   31.0482    8.0314 C   0  0  0  0  0  0  0  0  0  0  0  0
   -4.2975   30.8682    7.0960 C   0  0  0  0  0  0  0  0  0  0  0  0
   -1.9201   31.5646    7.5913 C   0  0  0  0  0  0  0  0  0  0  0  0
   -1.8261   31.6762    6.2378 F   0  0  0  0  0  0  0  0  0  0  0  0
   -0.8871   30.7620    7.9729 F   0  0  0  0  0  0  0  0  0  0  0  0
   -1.6325   32.7993    8.0898 F   0  0  0  0  0  0  0  0  0  0  0  0
  7  8  2  0  0  0
  8  9  1  0  0  0
  9  1  1  0  0  0
  1  2  1  0  0  0
  2  3  2  0  0  0
  3  4  1  0  0  0
  4 17  1  0  0  0
 17 18  1  0  0  0
 18 19  1  0  0  0
 19 20  2  0  0  0
 20 21  1  0  0  0
 21 22  2  0  0  0
 22 24  1  0  0  0
 24 25  1  0  0  0
 24 26  1  0  0  0
 24 27  1  0  0  0
 22 23  1  0  0  0
  4  5  2  0  0  0
  5  6  1  0  0  0
  8 11  1  0  0  0
 11 12  1  0  0  0
 12 13  1  0  0  0
 13 14  1  0  0  0
 14 15  1  0  0  0
  6  1  2  0  0  0
 15 11  1  0  0  0
 23 18  2  0  0  0
  9 10  1  0  0  0
 14 16  1  0  0  0
M  END
> <minimizedAffinity>
-9.65134

$$$$
OCNT-2318277


 26 28  0  0  0  0  0  0  0  0999 V2000
   -1.0580   26.0536    3.8362 C   0  0  0  0  0  0  0  0  0  0  0  0
   -2.5297   25.8599    3.8621 C   0  0  0  0  0  0  0  0  0  0  0  0
   -3.1722   25.5388    2.7420 N   0  0  0  0  0  0  0  0  0  0  0  0
   -4.4786   25.3673    3.0957 N   0  0  0  0  0  0  0  0  0  0  0  0
   -4.6722   25.7397    4.4277 C   0  0  0  0  0  0  0  0  0  0  0  0
   -5.9837   25.8803    5.1137 C   0  0  0  0  0  0  0  0  0  0  0  0
   -3.4116   25.9942    4.9585 C   0  0  0  0  0  0  0  0  0  0  0  0
   -5.4011   24.8590    2.1085 C   0  0  0  0  0  0  0  0  0  0  0  0
   -6.1222   23.6870    2.3222 C   0  0  0  0  0  0  0  0  0  0  0  0
   -6.9985   23.2354    1.3322 C   0  0  0  0  0  0  0  0  0  0  0  0
   -7.1301   23.9514    0.1511 C   0  0  0  0  0  0  0  0  0  0  0  0
   -6.3668   25.0918   -0.0015 C   0  0  0  0  0  0  0  0  0  0  0  0
   -5.5130   25.5497    0.9368 N   0  0  0  0  0  0  0  0  0  0  0  0
   -3.0589   26.3774    6.3580 C   0  0  0  0  0  0  0  0  0  0  0  0
   -3.4769   27.7666    6.5562 N   0  0  0  0  0  0  0  0  0  0  0  0
   -3.8921   27.8420    7.4840 H   0  0  0  0  0  0  0  0  0  0  0  0
   -2.3211   28.6727    6.4501 C   0  0  0  0  0  0  0  0  0  0  0  0
   -1.3558   28.5447    7.6528 C   0  0  0  0  0  0  0  0  0  0  0  0
    0.1167   28.5803    7.2025 C   0  0  0  0  0  0  0  0  0  0  0  0
    0.8458   29.1765    8.3869 C   0  0  0  0  0  0  0  0  0  0  0  0
   -0.1154   30.2640    8.8303 C   0  0  0  0  0  0  0  0  0  0  0  0
   -1.4477   29.6295    8.7020 N   0  0  0  0  0  0  0  0  0  0  0  0
   -2.8074   30.6159    8.7927 S   0  0  0  0  0  0  0  0  0  0  0  0
   -2.4530   31.6368   10.2087 C   0  0  0  0  0  0  0  0  0  0  0  0
   -3.9410   29.7836    9.1315 O   0  0  0  0  0  0  0  0  0  0  0  0
   -2.8202   31.4523    7.6122 O   0  0  0  0  0  0  0  0  0  0  0  0
  1  2  1  0  0  0
  2  3  2  0  0  0
  3  4  1  0  0  0
  4  8  1  0  0  0
  8  9  2  0  0  0
  9 10  1  0  0  0
 10 11  2  0  0  0
 11 12  1  0  0  0
 12 13  2  0  0  0
  4  5  1  0  0  0
  5  6  1  0  0  0
  5  7  2  0  0  0
  7 14  1  0  0  0
 14 15  1  0  0  0
 15 17  1  0  0  0
 17 18  1  0  0  0
 18 19  1  0  0  0
 19 20  1  0  0  0
 20 21  1  0  0  0
 21 22  1  0  0  0
 22 23  1  0  0  0
 23 24  1  0  0  0
 23 25  2  0  0  0
 23 26  2  0  0  0
  7  2  1  0  0  0
 22 18  1  0  0  0
 13  8  1  0  0  0
 15 16  1  0  0  0
M  END
> <minimizedAffinity>
-8.25462

$$$$
OCNT-2318281


 23 25  0  0  0  0  0  0  0  0999 V2000
   -2.7796   26.1662    4.3702 C   0  0  0  0  0  0  0  0  0  0  0  0
   -1.4543   26.0150    4.1749 N   0  0  0  0  0  0  0  0  0  0  0  0
   -0.8723   26.6526    5.2648 O   0  0  0  0  0  0  0  0  0  0  0  0
   -1.8995   27.1402    6.0150 C   0  0  0  0  0  0  0  0  0  0  0  0
   -3.0811   26.8488    5.5273 N   0  0  0  0  0  0  0  0  0  0  0  0
   -4.8651   26.3940    2.9334 C   0  0  0  0  0  0  0  0  0  0  0  0
   -5.7563   25.7388    2.0773 C   0  0  0  0  0  0  0  0  0  0  0  0
   -5.6571   24.4461    1.6950 N   0  0  0  0  0  0  0  0  0  0  0  0
   -4.6232   23.7477    2.1953 C   0  0  0  0  0  0  0  0  0  0  0  0
   -3.6854   24.2862    3.0578 C   0  0  0  0  0  0  0  0  0  0  0  0
   -3.7927   25.6346    3.4499 C   0  0  0  0  0  0  0  0  0  0  0  0
   -6.1997   27.9945    4.3495 C   0  0  0  0  0  0  0  0  0  0  0  0
   -5.1526   27.8427    3.2507 C   0  0  0  0  0  0  0  0  0  0  0  0
   -1.5441   27.8926    7.2422 C   0  0  0  0  0  0  0  0  0  0  0  0
   -1.0299   29.3148    6.9368 C   0  0  0  0  0  0  0  0  0  0  0  0
    0.4993   29.3628    7.0518 C   0  0  0  0  0  0  0  0  0  0  0  0
   -1.6663   30.3879    7.8202 C   0  0  0  0  0  0  0  0  0  0  0  0
   -0.9871   30.8358    8.9740 C   0  0  0  0  0  0  0  0  0  0  0  0
   -1.5389   31.8107    9.8081 C   0  0  0  0  0  0  0  0  0  0  0  0
   -2.7797   32.3606    9.5073 C   0  0  0  0  0  0  0  0  0  0  0  0
   -3.4689   31.9360    8.3710 C   0  0  0  0  0  0  0  0  0  0  0  0
   -2.9300   30.9533    7.5195 C   0  0  0  0  0  0  0  0  0  0  0  0
   -3.7363   30.5411    6.3140 C   0  0  0  0  0  0  0  0  0  0  0  0
 12 13  1  0  0  0
 13  6  1  0  0  0
  6  7  2  0  0  0
  7  8  1  0  0  0
  8  9  2  0  0  0
  9 10  1  0  0  0
 10 11  2  0  0  0
 11  1  1  0  0  0
  1  2  2  0  0  0
  2  3  1  0  0  0
  3  4  1  0  0  0
  4 14  1  0  0  0
 14 15  1  0  0  0
 15 16  1  0  0  0
 15 17  1  0  0  0
 17 18  2  0  0  0
 18 19  1  0  0  0
 19 20  2  0  0  0
 20 21  1  0  0  0
 21 22  2  0  0  0
 22 23  1  0  0  0
  4  5  2  0  0  0
 11  6  1  0  0  0
  5  1  1  0  0  0
 22 17  1  0  0  0
M  END
> <minimizedAffinity>
-8.79242

$$$$
OCNT-2318286


 28 31  0  0  0  0  0  0  0  0999 V2000
   -3.3860   25.3523    1.7333 C   0  0  0  0  0  0  0  0  0  0  0  0
   -4.7899   25.4117    2.4041 C   0  0  0  0  0  0  0  0  0  0  0  0
   -5.0706   26.9239    2.6679 C   0  0  0  0  0  0  0  0  0  0  0  0
   -6.0637   27.3014    3.7735 C   0  0  0  0  0  0  0  0  0  0  0  0
   -5.7391   26.7725    5.1722 C   0  0  0  0  0  0  0  0  0  0  0  0
   -4.3291   26.4279    5.3430 N   0  0  0  0  0  0  0  0  0  0  0  0
   -3.4269   27.1453    6.1428 C   0  0  0  0  0  0  0  0  0  0  0  0
   -2.3589   26.6531    6.5147 O   0  0  0  0  0  0  0  0  0  0  0  0
   -3.8841   25.1255    4.8501 C   0  0  0  0  0  0  0  0  0  0  0  0
   -4.7048   24.5396    3.6947 C   0  0  0  0  0  0  0  0  0  0  0  0
   -5.8920   24.8487    1.4665 C   0  0  0  0  0  0  0  0  0  0  0  0
   -6.1663   25.4594    0.2265 C   0  0  0  0  0  0  0  0  0  0  0  0
   -7.1475   24.9652   -0.6389 C   0  0  0  0  0  0  0  0  0  0  0  0
   -7.8807   23.8386   -0.2904 C   0  0  0  0  0  0  0  0  0  0  0  0
   -7.6277   23.2072    0.9207 C   0  0  0  0  0  0  0  0  0  0  0  0
   -6.6453   23.7041    1.7861 C   0  0  0  0  0  0  0  0  0  0  0  0
   -3.7248   28.5509    6.5706 C   0  0  0  0  0  0  0  0  0  0  0  0
   -4.9545   28.8257    7.1582 C   0  0  0  0  0  0  0  0  0  0  0  0
   -5.2077   30.1239    7.6036 C   0  0  0  0  0  0  0  0  0  0  0  0
   -4.2306   31.1163    7.4757 C   0  0  0  0  0  0  0  0  0  0  0  0
   -3.0310   30.7369    6.8786 C   0  0  0  0  0  0  0  0  0  0  0  0
   -2.7517   29.4885    6.4309 N   0  0  0  0  0  0  0  0  0  0  0  0
   -4.4931   32.4697    7.9458 C   0  0  0  0  0  0  0  0  0  0  0  0
   -4.2361   32.9606    9.1448 N   0  0  0  0  0  0  0  0  0  0  0  0
   -4.6520   34.2688    9.1320 N   0  0  0  0  0  0  0  0  0  0  0  0
   -5.1497   34.5963    7.9493 N   0  0  0  0  0  0  0  0  0  0  0  0
   -5.0445   33.4865    7.2103 N   0  0  0  0  0  0  0  0  0  0  0  0
   -5.3454   33.5091    6.2446 H   0  0  0  0  0  0  0  0  0  0  0  0
  1  2  1  0  0  0
  2 11  1  0  0  0
 11 12  2  0  0  0
 12 13  1  0  0  0
 13 14  2  0  0  0
 14 15  1  0  0  0
 15 16  2  0  0  0
  2  3  1  0  0  0
  3  4  1  0  0  0
  4  5  1  0  0  0
  5  6  1  0  0  0
  6  7  1  0  0  0
  7  8  2  0  0  0
  7 17  1  0  0  0
 17 18  2  0  0  0
 18 19  1  0  0  0
 19 20  2  0  0  0
 20 23  1  0  0  0
 23 24  2  0  0  0
 24 25  1  0  0  0
 25 26  2  0  0  0
 26 27  1  0  0  0
 20 21  1  0  0  0
 21 22  2  0  0  0
  6  9  1  0  0  0
  9 10  1  0  0  0
 10  2  1  0  0  0
 16 11  1  0  0  0
 22 17  1  0  0  0
 27 23  1  0  0  0
 27 28  1  0  0  0
M  END
> <minimizedAffinity>
-10.02457

$$$$
OCNT-2318287


 30 32  0  0  0  0  0  0  0  0999 V2000
   -4.2108   30.7893    5.5740 N   0  0  0  0  0  0  0  0  0  0  0  0
   -4.6935   31.1725    4.7661 H   0  0  0  0  0  0  0  0  0  0  0  0
   -4.9777   29.6600    6.1214 C   0  0  0  0  0  0  0  0  0  0  0  0
   -6.2536   30.1208    6.8311 C   0  0  0  0  0  0  0  0  0  0  0  0
   -5.2918   28.6950    5.0112 C   0  0  0  0  0  0  0  0  0  0  0  0
   -4.8708   27.3945    4.7571 C   0  0  0  0  0  0  0  0  0  0  0  0
   -3.8914   26.5586    5.4868 C   0  0  0  0  0  0  0  0  0  0  0  0
   -5.5586   27.0341    3.5995 N   0  0  0  0  0  0  0  0  0  0  0  0
   -6.2011   28.1294    3.1150 N   0  0  0  0  0  0  0  0  0  0  0  0
   -6.0907   29.1150    3.9856 N   0  0  0  0  0  0  0  0  0  0  0  0
   -5.6710   25.7925    2.9055 C   0  0  0  0  0  0  0  0  0  0  0  0
   -5.3055   25.6435    1.5639 C   0  0  0  0  0  0  0  0  0  0  0  0
   -5.4325   24.4018    0.9276 C   0  0  0  0  0  0  0  0  0  0  0  0
   -5.9056   23.2849    1.6230 C   0  0  0  0  0  0  0  0  0  0  0  0
   -6.0703   21.9664    0.9275 C   0  0  0  0  0  0  0  0  0  0  0  0
   -6.2657   23.4286    2.9648 C   0  0  0  0  0  0  0  0  0  0  0  0
   -6.1391   24.6659    3.6039 C   0  0  0  0  0  0  0  0  0  0  0  0
   -4.0115   31.8485    6.5586 C   0  0  0  0  0  0  0  0  0  0  0  0
   -0.7714   30.3294    7.8846 C   0  0  0  0  0  0  0  0  0  0  0  0
   -0.6525   30.9487    9.1315 C   0  0  0  0  0  0  0  0  0  0  0  0
   -1.6392   31.8390    9.5499 C   0  0  0  0  0  0  0  0  0  0  0  0
   -2.7262   32.1191    8.7184 C   0  0  0  0  0  0  0  0  0  0  0  0
   -2.8369   31.5229    7.4517 C   0  0  0  0  0  0  0  0  0  0  0  0
   -1.8498   30.6170    7.0396 C   0  0  0  0  0  0  0  0  0  0  0  0
    0.4873   29.2024    7.3357 S   0  0  0  0  0  0  0  0  0  0  0  0
    0.8578   29.5744    5.9878 O   0  0  0  0  0  0  0  0  0  0  0  0
    1.4687   29.0671    8.3885 O   0  0  0  0  0  0  0  0  0  0  0  0
   -0.4201   27.0498    5.9460 C   0  0  0  0  0  0  0  0  0  0  0  0
   -0.3504   27.7598    7.2109 N   0  0  0  0  0  0  0  0  0  0  0  0
   -0.4886   27.2598    8.0859 H   0  0  0  0  0  0  0  0  0  0  0  0
 28 29  1  0  0  0
 29 25  1  0  0  0
 25 26  2  0  0  0
 25 27  2  0  0  0
 25 19  1  0  0  0
 19 20  2  0  0  0
 20 21  1  0  0  0
 21 22  2  0  0  0
 22 23  1  0  0  0
 23 18  1  0  0  0
 18  1  1  0  0  0
  1  3  1  0  0  0
  3  4  1  0  0  0
  3  5  1  0  0  0
  5  6  2  0  0  0
  6  7  1  0  0  0
  6  8  1  0  0  0
  8 11  1  0  0  0
 11 12  1  0  0  0
 12 13  2  0  0  0
 13 14  1  0  0  0
 14 15  1  0  0  0
 14 16  2  0  0  0
 16 17  1  0  0  0
  8  9  1  0  0  0
  9 10  2  0  0  0
 23 24  2  0  0  0
 24 19  1  0  0  0
 10  5  1  0  0  0
 17 11  2  0  0  0
 29 30  1  0  0  0
  1  2  1  0  0  0
M  END
> <minimizedAffinity>
-10.10644

$$$$
OCNT-2318290


 29 32  0  0  0  0  0  0  0  0999 V2000
   -2.1047   29.2946    7.8724 C   0  0  0  0  0  0  0  0  0  0  0  0
   -2.9330   29.5397    6.6061 C   0  0  0  0  0  0  0  0  0  0  0  0
   -3.5166   28.2441    6.0535 C   0  0  0  0  0  0  0  0  0  0  0  0
   -2.4708   27.2636    5.7495 N   0  0  0  0  0  0  0  0  0  0  0  0
   -2.5064   26.3758    4.6862 C   0  0  0  0  0  0  0  0  0  0  0  0
   -1.5199   25.7538    4.3043 O   0  0  0  0  0  0  0  0  0  0  0  0
   -3.7389   26.2445    4.0954 N   0  0  0  0  0  0  0  0  0  0  0  0
   -1.2315   27.3514    6.5181 C   0  0  0  0  0  0  0  0  0  0  0  0
   -1.4860   27.8917    7.9153 C   0  0  0  0  0  0  0  0  0  0  0  0
   -4.5103   26.3537    4.7349 H   0  0  0  0  0  0  0  0  0  0  0  0
   -3.9446   25.3166    2.9866 C   0  0  0  0  0  0  0  0  0  0  0  0
   -3.9280   23.8677    3.4522 C   0  0  0  0  0  0  0  0  0  0  0  0
   -4.1182   22.9298    2.2690 C   0  0  0  0  0  0  0  0  0  0  0  0
   -4.7344   23.5495    1.1423 O   0  0  0  0  0  0  0  0  0  0  0  0
   -5.8070   24.4605    1.4209 C   0  0  0  0  0  0  0  0  0  0  0  0
   -6.9810   23.7457    2.1128 C   0  0  0  0  0  0  0  0  0  0  0  0
   -7.5318   22.6077    1.2520 C   0  0  0  0  0  0  0  0  0  0  0  0
   -7.4311   22.8397   -0.1506 O   0  0  0  0  0  0  0  0  0  0  0  0
   -7.5039   24.2135   -0.4943 C   0  0  0  0  0  0  0  0  0  0  0  0
   -6.3089   24.9926    0.0554 C   0  0  0  0  0  0  0  0  0  0  0  0
   -5.2602   25.6366    2.2662 C   0  0  0  0  0  0  0  0  0  0  0  0
   -2.9747   29.4120    9.0135 O   0  0  0  0  0  0  0  0  0  0  0  0
   -5.8081   29.4244    8.9642 C   0  0  0  0  0  0  0  0  0  0  0  0
   -4.9848   30.6684    9.0748 C   0  0  0  0  0  0  0  0  0  0  0  0
   -5.5837   31.9188    9.1656 C   0  0  0  0  0  0  0  0  0  0  0  0
   -4.9039   33.0832    9.2721 N   0  0  0  0  0  0  0  0  0  0  0  0
   -3.5575   33.0024    9.2800 C   0  0  0  0  0  0  0  0  0  0  0  0
   -2.8586   31.8115    9.2042 C   0  0  0  0  0  0  0  0  0  0  0  0
   -3.5904   30.6302    9.1261 C   0  0  0  0  0  0  0  0  0  0  0  0
 23 24  1  0  0  0
 24 25  2  0  0  0
 25 26  1  0  0  0
 26 27  2  0  0  0
 27 28  1  0  0  0
 28 29  2  0  0  0
 29 22  1  0  0  0
 22  1  1  0  0  0
  1  2  1  0  0  0
  2  3  1  0  0  0
  3  4  1  0  0  0
  4  5  1  0  0  0
  5  6  2  0  0  0
  5  7  1  0  0  0
  7 11  1  0  0  0
 11 12  1  0  0  0
 12 13  1  0  0  0
 13 14  1  0  0  0
 14 15  1  0  0  0
 15 16  1  0  0  0
 16 17  1  0  0  0
 17 18  1  0  0  0
 18 19  1  0  0  0
 19 20  1  0  0  0
 15 21  1  0  0  0
  4  8  1  0  0  0
  8  9  1  0  0  0
 29 24  1  0  0  0
  9  1  1  0  0  0
 21 11  1  0  0  0
 20 15  1  0  0  0
  7 10  1  0  0  0
M  END
> <minimizedAffinity>
-9.61426

$$$$
OCNT-2318299


 30 33  0  0  0  0  0  0  0  0999 V2000
   -2.3725   27.7381    6.3567 C   0  0  0  0  0  0  0  0  0  0  0  0
   -1.6114   26.6493    5.9630 C   0  0  0  0  0  0  0  0  0  0  0  0
   -0.3419   26.8913    6.3839 N   0  0  0  0  0  0  0  0  0  0  0  0
   -0.2065   28.0475    7.0379 N   0  0  0  0  0  0  0  0  0  0  0  0
   -1.4397   28.5886    7.0388 C   0  0  0  0  0  0  0  0  0  0  0  0
    0.4838   26.3150    6.2540 H   0  0  0  0  0  0  0  0  0  0  0  0
   -1.6524   29.8791    7.7000 C   0  0  0  0  0  0  0  0  0  0  0  0
   -0.8351   30.3007    8.7550 C   0  0  0  0  0  0  0  0  0  0  0  0
   -1.0486   31.5398    9.3596 C   0  0  0  0  0  0  0  0  0  0  0  0
   -2.0671   32.3731    8.8988 C   0  0  0  0  0  0  0  0  0  0  0  0
   -2.8738   31.9829    7.8279 C   0  0  0  0  0  0  0  0  0  0  0  0
   -2.6718   30.7321    7.2402 C   0  0  0  0  0  0  0  0  0  0  0  0
   -3.8235   32.8964    7.4633 O   0  0  0  0  0  0  0  0  0  0  0  0
   -4.5208   33.5312    8.5215 C   0  0  0  0  0  0  0  0  0  0  0  0
   -5.1577   34.6273    8.0408 F   0  0  0  0  0  0  0  0  0  0  0  0
   -5.4895   32.6741    8.9366 F   0  0  0  0  0  0  0  0  0  0  0  0
   -4.5529   28.4785    6.8834 O   0  0  0  0  0  0  0  0  0  0  0  0
   -3.7866   27.9577    6.0811 C   0  0  0  0  0  0  0  0  0  0  0  0
   -4.2084   27.5121    4.8458 N   0  0  0  0  0  0  0  0  0  0  0  0
   -3.5836   26.9323    4.3018 H   0  0  0  0  0  0  0  0  0  0  0  0
   -5.6133   27.5545    4.4369 C   0  0  0  0  0  0  0  0  0  0  0  0
   -6.4517   26.4987    5.2115 C   0  0  0  0  0  0  0  0  0  0  0  0
   -6.0579   25.0411    4.8869 C   0  0  0  0  0  0  0  0  0  0  0  0
   -5.8076   24.9132    3.4336 C   0  0  0  0  0  0  0  0  0  0  0  0
   -5.6439   25.9420    2.5363 C   0  0  0  0  0  0  0  0  0  0  0  0
   -5.7460   27.3789    2.8995 C   0  0  0  0  0  0  0  0  0  0  0  0
   -5.3868   25.4623    1.2846 N   0  0  0  0  0  0  0  0  0  0  0  0
   -5.4101   24.1523    1.4138 C   0  0  0  0  0  0  0  0  0  0  0  0
   -5.6637   23.7686    2.7053 N   0  0  0  0  0  0  0  0  0  0  0  0
   -5.7270   22.8171    3.0412 H   0  0  0  0  0  0  0  0  0  0  0  0
 17 18  2  0  0  0
 18 19  1  0  0  0
 19 21  1  0  0  0
 21 22  1  0  0  0
 22 23  1  0  0  0
 23 24  1  0  0  0
 24 25  2  0  0  0
 25 26  1  0  0  0
 25 27  1  0  0  0
 27 28  2  0  0  0
 28 29  1  0  0  0
 18  1  1  0  0  0
  1  2  2  0  0  0
  2  3  1  0  0  0
  3  4  1  0  0  0
  4  5  2  0  0  0
  5  7  1  0  0  0
  7  8  2  0  0  0
  8  9  1  0  0  0
  9 10  2  0  0  0
 10 11  1  0  0  0
 11 13  1  0  0  0
 13 14  1  0  0  0
 14 15  1  0  0  0
 14 16  1  0  0  0
 11 12  2  0  0  0
 26 21  1  0  0  0
  5  1  1  0  0  0
 12  7  1  0  0  0
 29 24  1  0  0  0
 19 20  1  0  0  0
 29 30  1  0  0  0
  3  6  1  0  0  0
M  END
> <minimizedAffinity>
-10.33609

$$$$
OCNT-2318306


 24 26  0  0  0  0  0  0  0  0999 V2000
   -3.8367   27.1997    4.6503 C   0  0  0  0  0  0  0  0  0  0  0  0
   -3.1368   26.3747    3.7618 C   0  0  0  0  0  0  0  0  0  0  0  0
   -3.8077   25.6767    2.7528 C   0  0  0  0  0  0  0  0  0  0  0  0
   -5.1951   25.7932    2.6100 C   0  0  0  0  0  0  0  0  0  0  0  0
   -5.8934   26.6159    3.5016 C   0  0  0  0  0  0  0  0  0  0  0  0
   -5.2198   27.3130    4.5121 C   0  0  0  0  0  0  0  0  0  0  0  0
   -2.3081   27.3134    6.6428 C   0  0  0  0  0  0  0  0  0  0  0  0
   -2.1546   26.1128    6.8408 O   0  0  0  0  0  0  0  0  0  0  0  0
   -3.0814   27.8664    5.6352 N   0  0  0  0  0  0  0  0  0  0  0  0
   -3.1065   28.8795    5.6072 H   0  0  0  0  0  0  0  0  0  0  0  0
   -1.0357   29.9694    8.7532 C   0  0  0  0  0  0  0  0  0  0  0  0
    0.0559   29.2151    8.6047 N   0  0  0  0  0  0  0  0  0  0  0  0
   -0.3450   28.1604    7.7987 O   0  0  0  0  0  0  0  0  0  0  0  0
   -1.6667   28.3029    7.4807 C   0  0  0  0  0  0  0  0  0  0  0  0
   -2.1450   29.4498    8.0735 C   0  0  0  0  0  0  0  0  0  0  0  0
   -2.3194   31.5496    9.8916 C   0  0  0  0  0  0  0  0  0  0  0  0
   -1.0295   31.1034    9.4878 O   0  0  0  0  0  0  0  0  0  0  0  0
   -5.9272   25.0420    1.5209 C   0  0  0  0  0  0  0  0  0  0  0  0
   -6.2304   23.6015    1.8601 C   0  0  0  0  0  0  0  0  0  0  0  0
   -7.0047   23.2774    2.9779 C   0  0  0  0  0  0  0  0  0  0  0  0
   -7.2633   21.9411    3.2442 C   0  0  0  0  0  0  0  0  0  0  0  0
   -6.8118   20.9213    2.4846 N   0  0  0  0  0  0  0  0  0  0  0  0
   -6.0679   21.2537    1.4084 C   0  0  0  0  0  0  0  0  0  0  0  0
   -5.7574   22.5585    1.0574 C   0  0  0  0  0  0  0  0  0  0  0  0
 16 17  1  0  0  0
 17 11  1  0  0  0
 11 12  2  0  0  0
 12 13  1  0  0  0
 13 14  1  0  0  0
 14  7  1  0  0  0
  7  8  2  0  0  0
  7  9  1  0  0  0
  9  1  1  0  0  0
  1  2  1  0  0  0
  2  3  2  0  0  0
  3  4  1  0  0  0
  4 18  1  0  0  0
 18 19  1  0  0  0
 19 20  2  0  0  0
 20 21  1  0  0  0
 21 22  2  0  0  0
 22 23  1  0  0  0
 23 24  2  0  0  0
  4  5  2  0  0  0
  5  6  1  0  0  0
 14 15  2  0  0  0
 15 11  1  0  0  0
  6  1  2  0  0  0
 24 19  1  0  0  0
  9 10  1  0  0  0
M  END
> <minimizedAffinity>
-8.48595

$$$$
OCNT-2318312


 27 29  0  0  0  0  0  0  0  0999 V2000
    1.3604   29.0135    8.6666 C   0  0  0  0  0  0  0  0  0  0  0  0
   -0.0362   28.9869    8.3078 N   0  0  0  0  0  0  0  0  0  0  0  0
   -1.0385   29.7192    8.8585 C   0  0  0  0  0  0  0  0  0  0  0  0
   -2.2003   29.3654    8.1924 C   0  0  0  0  0  0  0  0  0  0  0  0
   -1.7671   28.3943    7.2399 C   0  0  0  0  0  0  0  0  0  0  0  0
   -0.4478   28.1695    7.3322 N   0  0  0  0  0  0  0  0  0  0  0  0
   -2.5980   27.6142    6.1522 C   0  0  0  0  0  0  0  0  0  0  0  0
   -2.2302   26.4934    5.4313 C   0  0  0  0  0  0  0  0  0  0  0  0
   -3.3186   26.1584    4.5816 C   0  0  0  0  0  0  0  0  0  0  0  0
   -3.5814   25.1603    3.6269 C   0  0  0  0  0  0  0  0  0  0  0  0
   -4.8234   25.1656    2.9748 C   0  0  0  0  0  0  0  0  0  0  0  0
   -5.7843   26.1392    3.2625 C   0  0  0  0  0  0  0  0  0  0  0  0
   -5.5390   27.1394    4.2091 C   0  0  0  0  0  0  0  0  0  0  0  0
   -4.2972   27.1062    4.8384 C   0  0  0  0  0  0  0  0  0  0  0  0
   -3.8676   27.9822    5.7819 O   0  0  0  0  0  0  0  0  0  0  0  0
   -3.5565   29.9190    8.4694 C   0  0  0  0  0  0  0  0  0  0  0  0
   -4.4406   28.7963    8.7762 N   0  0  0  0  0  0  0  0  0  0  0  0
   -4.1119   28.3236    9.6177 H   0  0  0  0  0  0  0  0  0  0  0  0
   -5.8779   29.1318    8.9026 C   0  0  0  0  0  0  0  0  0  0  0  0
   -6.5386   28.5332   10.1659 C   0  0  0  0  0  0  0  0  0  0  0  0
   -5.5986   27.7695   10.9151 O   0  0  0  0  0  0  0  0  0  0  0  0
   -6.0871   27.3757   11.6599 H   0  0  0  0  0  0  0  0  0  0  0  0
   -6.6382   28.8184    7.6032 C   0  0  0  0  0  0  0  0  0  0  0  0
   -6.8780   30.0465    6.7527 C   0  0  0  0  0  0  0  0  0  0  0  0
   -8.0562   30.0151    6.1011 F   0  0  0  0  0  0  0  0  0  0  0  0
   -5.9045   30.1641    5.8201 F   0  0  0  0  0  0  0  0  0  0  0  0
   -6.8525   31.1688    7.5051 F   0  0  0  0  0  0  0  0  0  0  0  0
  1  2  1  0  0  0
  2  3  1  0  0  0
  3  4  2  0  0  0
  4 16  1  0  0  0
 16 17  1  0  0  0
 17 19  1  0  0  0
 19 20  1  0  0  0
 20 21  1  0  0  0
 19 23  1  0  0  0
 23 24  1  0  0  0
 24 25  1  0  0  0
 24 26  1  0  0  0
 24 27  1  0  0  0
  4  5  1  0  0  0
  5  7  1  0  0  0
  7  8  2  0  0  0
  8  9  1  0  0  0
  9 10  2  0  0  0
 10 11  1  0  0  0
 11 12  2  0  0  0
 12 13  1  0  0  0
 13 14  2  0  0  0
 14 15  1  0  0  0
  5  6  2  0  0  0
  6  2  1  0  0  0
 15  7  1  0  0  0
 14  9  1  0  0  0
 17 18  1  0  0  0
 21 22  1  0  0  0
M  END
> <minimizedAffinity>
-8.49850

$$$$
OCNT-2318326


 24 27  0  0  0  0  0  0  0  0999 V2000
   -4.4650   26.1509    2.7249 C   0  0  0  0  0  0  0  0  0  0  0  0
   -7.7304   20.8686    3.1146 Br  0  0  0  0  0  0  0  0  0  0  0  0
   -6.7709   22.5011    2.8756 C   0  0  0  0  0  0  0  0  0  0  0  0
   -5.9945   22.9124    3.9586 C   0  0  0  0  0  0  0  0  0  0  0  0
   -5.2642   24.0894    3.8796 C   0  0  0  0  0  0  0  0  0  0  0  0
   -5.3009   24.8817    2.7190 C   0  0  0  0  0  0  0  0  0  0  0  0
   -6.0755   24.4648    1.5963 C   0  0  0  0  0  0  0  0  0  0  0  0
   -6.1311   25.2017    0.3879 C   0  0  0  0  0  0  0  0  0  0  0  0
   -6.8967   24.7876   -0.7027 C   0  0  0  0  0  0  0  0  0  0  0  0
   -7.6330   23.6200   -0.6197 C   0  0  0  0  0  0  0  0  0  0  0  0
   -7.5979   22.8669    0.5527 C   0  0  0  0  0  0  0  0  0  0  0  0
   -6.8284   23.2576    1.6776 C   0  0  0  0  0  0  0  0  0  0  0  0
   -4.8801   27.1139    3.7731 C   0  0  0  0  0  0  0  0  0  0  0  0
   -4.3404   27.3656    4.9433 N   0  0  0  0  0  0  0  0  0  0  0  0
   -5.1667   28.3341    5.4560 C   0  0  0  0  0  0  0  0  0  0  0  0
   -6.1937   28.6461    4.6508 N   0  0  0  0  0  0  0  0  0  0  0  0
   -6.0058   27.8404    3.5343 O   0  0  0  0  0  0  0  0  0  0  0  0
   -4.8911   28.8665    6.6751 N   0  0  0  0  0  0  0  0  0  0  0  0
   -5.9874   28.9359    7.6528 C   0  0  0  0  0  0  0  0  0  0  0  0
   -5.6306   29.8587    8.8376 C   0  0  0  0  0  0  0  0  0  0  0  0
   -4.3431   29.5263    9.4788 N   0  0  0  0  0  0  0  0  0  0  0  0
   -3.2907   29.5820    8.4451 C   0  0  0  0  0  0  0  0  0  0  0  0
   -3.5523   28.6502    7.2422 C   0  0  0  0  0  0  0  0  0  0  0  0
   -4.3984   28.5682    9.8248 H   0  0  0  0  0  0  0  0  0  0  0  0
  2  3  1  0  0  0
  3  4  2  0  0  0
  4  5  1  0  0  0
  5  6  2  0  0  0
  6  1  1  0  0  0
  1 13  1  0  0  0
 13 14  2  0  0  0
 14 15  1  0  0  0
 15 18  1  0  0  0
 18 19  1  0  0  0
 19 20  1  0  0  0
 20 21  1  0  0  0
 21 22  1  0  0  0
 22 23  1  0  0  0
 15 16  2  0  0  0
 16 17  1  0  0  0
  6  7  1  0  0  0
  7  8  2  0  0  0
  8  9  1  0  0  0
  9 10  2  0  0  0
 10 11  1  0  0  0
 11 12  2  0  0  0
 12  3  1  0  0  0
 17 13  1  0  0  0
 12  7  1  0  0  0
 23 18  1  0  0  0
 21 24  1  0  0  0
M  END
> <minimizedAffinity>
-9.51775

$$$$
OCNT-2318328


 31 34  0  0  0  0  0  0  0  0999 V2000
   -7.6603   28.0857    6.7524 O   0  0  0  0  0  0  0  0  0  0  0  0
   -6.5422   28.5065    7.0474 C   0  0  0  0  0  0  0  0  0  0  0  0
   -5.3915   28.3089    6.3076 N   0  0  0  0  0  0  0  0  0  0  0  0
   -4.5422   28.6774    6.7230 H   0  0  0  0  0  0  0  0  0  0  0  0
   -5.2413   27.5997    5.1007 C   0  0  0  0  0  0  0  0  0  0  0  0
   -4.3381   26.5287    5.1003 C   0  0  0  0  0  0  0  0  0  0  0  0
   -4.1326   25.7698    3.9450 C   0  0  0  0  0  0  0  0  0  0  0  0
   -4.8356   26.0699    2.7805 C   0  0  0  0  0  0  0  0  0  0  0  0
   -5.7124   27.1545    2.7610 C   0  0  0  0  0  0  0  0  0  0  0  0
   -5.9211   27.9096    3.9211 C   0  0  0  0  0  0  0  0  0  0  0  0
   -4.5576   25.3011    1.6738 O   0  0  0  0  0  0  0  0  0  0  0  0
   -5.6025   24.6260    1.0861 C   0  0  0  0  0  0  0  0  0  0  0  0
   -6.1793   25.2083   -0.0427 C   0  0  0  0  0  0  0  0  0  0  0  0
   -7.2262   24.5621   -0.7006 C   0  0  0  0  0  0  0  0  0  0  0  0
   -7.6816   23.3269   -0.2398 C   0  0  0  0  0  0  0  0  0  0  0  0
   -7.0862   22.7325    0.8735 C   0  0  0  0  0  0  0  0  0  0  0  0
   -6.0397   23.3774    1.5343 C   0  0  0  0  0  0  0  0  0  0  0  0
   -6.3749   29.3859    8.2825 C   0  0  0  0  0  0  0  0  0  0  0  0
   -6.3203   31.1598    7.9043 S   0  0  0  0  0  0  0  0  0  0  0  0
   -4.6045   31.4489    7.9210 C   0  0  0  0  0  0  0  0  0  0  0  0
   -4.0644   32.6658    7.9932 N   0  0  0  0  0  0  0  0  0  0  0  0
   -2.7530   32.3777    7.9904 N   0  0  0  0  0  0  0  0  0  0  0  0
   -2.5257   31.0287    7.9041 C   0  0  0  0  0  0  0  0  0  0  0  0
   -3.7008   30.4266    7.8540 N   0  0  0  0  0  0  0  0  0  0  0  0
   -2.0851   33.1370    8.0451 H   0  0  0  0  0  0  0  0  0  0  0  0
   -1.2154   30.3852    7.8759 C   0  0  0  0  0  0  0  0  0  0  0  0
   -0.6740   29.9524    6.6613 C   0  0  0  0  0  0  0  0  0  0  0  0
    0.5770   29.3389    6.6280 C   0  0  0  0  0  0  0  0  0  0  0  0
    1.2580   29.1721    7.8205 C   0  0  0  0  0  0  0  0  0  0  0  0
    0.7749   29.5699    9.0169 N   0  0  0  0  0  0  0  0  0  0  0  0
   -0.4431   30.1641    9.0144 C   0  0  0  0  0  0  0  0  0  0  0  0
  1  2  2  0  0  0
  2 18  1  0  0  0
 18 19  1  0  0  0
 19 20  1  0  0  0
 20 21  2  0  0  0
 21 22  1  0  0  0
 22 23  1  0  0  0
 23 26  1  0  0  0
 26 27  1  0  0  0
 27 28  2  0  0  0
 28 29  1  0  0  0
 29 30  2  0  0  0
 30 31  1  0  0  0
 23 24  2  0  0  0
  2  3  1  0  0  0
  3  5  1  0  0  0
  5  6  1  0  0  0
  6  7  2  0  0  0
  7  8  1  0  0  0
  8 11  1  0  0  0
 11 12  1  0  0  0
 12 13  2  0  0  0
 13 14  1  0  0  0
 14 15  2  0  0  0
 15 16  1  0  0  0
 16 17  2  0  0  0
  8  9  2  0  0  0
  9 10  1  0  0  0
 24 20  1  0  0  0
 10  5  2  0  0  0
 31 26  2  0  0  0
 17 12  1  0  0  0
 22 25  1  0  0  0
  3  4  1  0  0  0
M  END
> <minimizedAffinity>
-10.25645

$$$$
OCNT-2318329


 37 41  0  0  0  0  0  0  0  0999 V2000
   -6.7055   28.7003    7.2432 C   0  0  0  0  0  0  0  0  0  0  0  0
   -5.7645   27.0528    3.9150 C   0  0  0  0  0  0  0  0  0  0  0  0
   -5.8391   28.1446    3.0514 C   0  0  0  0  0  0  0  0  0  0  0  0
   -6.1993   29.4059    3.5361 C   0  0  0  0  0  0  0  0  0  0  0  0
   -6.4868   29.5859    4.8882 C   0  0  0  0  0  0  0  0  0  0  0  0
   -6.4282   28.5031    5.7717 C   0  0  0  0  0  0  0  0  0  0  0  0
   -6.0604   27.2420    5.2727 C   0  0  0  0  0  0  0  0  0  0  0  0
   -3.2277   26.0562    2.6940 O   0  0  0  0  0  0  0  0  0  0  0  0
   -4.1965   25.3479    2.9500 C   0  0  0  0  0  0  0  0  0  0  0  0
   -5.3951   25.7523    3.5138 N   0  0  0  0  0  0  0  0  0  0  0  0
   -6.0997   25.0379    3.6540 H   0  0  0  0  0  0  0  0  0  0  0  0
   -4.1364   23.8525    2.7092 C   0  0  0  0  0  0  0  0  0  0  0  0
   -5.3610   23.4334    1.8953 C   0  0  0  0  0  0  0  0  0  0  0  0
   -5.9477   22.1722    2.3746 N   0  0  0  0  0  0  0  0  0  0  0  0
   -5.5155   21.7967    3.7406 C   0  0  0  0  0  0  0  0  0  0  0  0
   -6.5920   22.0094    4.8191 C   0  0  0  0  0  0  0  0  0  0  0  0
   -7.8038   21.2895    4.5570 O   0  0  0  0  0  0  0  0  0  0  0  0
   -8.0730   21.1335    3.1560 C   0  0  0  0  0  0  0  0  0  0  0  0
   -7.4249   22.2305    2.3001 C   0  0  0  0  0  0  0  0  0  0  0  0
   -6.5571   30.0862    7.6975 N   0  0  0  0  0  0  0  0  0  0  0  0
   -7.4783   30.4805    7.8683 H   0  0  0  0  0  0  0  0  0  0  0  0
   -5.7542   30.2325    8.9160 C   0  0  0  0  0  0  0  0  0  0  0  0
   -4.8015   31.3821    8.8399 C   0  0  0  0  0  0  0  0  0  0  0  0
   -5.0377   32.7279    9.0618 C   0  0  0  0  0  0  0  0  0  0  0  0
   -3.8596   33.3691    8.8390 N   0  0  0  0  0  0  0  0  0  0  0  0
   -2.8721   32.5544    8.4564 N   0  0  0  0  0  0  0  0  0  0  0  0
   -3.4280   31.3332    8.4389 C   0  0  0  0  0  0  0  0  0  0  0  0
   -3.6577   34.3607    8.9235 H   0  0  0  0  0  0  0  0  0  0  0  0
   -2.6453   30.1743    8.0279 C   0  0  0  0  0  0  0  0  0  0  0  0
   -1.4262   29.8735    8.6725 C   0  0  0  0  0  0  0  0  0  0  0  0
   -0.6618   28.7712    8.2745 C   0  0  0  0  0  0  0  0  0  0  0  0
   -1.1442   27.9970    7.2405 C   0  0  0  0  0  0  0  0  0  0  0  0
   -0.5346   26.8990    6.7180 O   0  0  0  0  0  0  0  0  0  0  0  0
   -1.4872   26.5115    5.7078 C   0  0  0  0  0  0  0  0  0  0  0  0
   -2.6308   27.3879    5.6315 O   0  0  0  0  0  0  0  0  0  0  0  0
   -2.3350   28.2823    6.6130 C   0  0  0  0  0  0  0  0  0  0  0  0
   -3.1054   29.3673    6.9753 C   0  0  0  0  0  0  0  0  0  0  0  0
  8  9  2  0  0  0
  9 12  1  0  0  0
 12 13  1  0  0  0
 13 14  1  0  0  0
 14 15  1  0  0  0
 15 16  1  0  0  0
 16 17  1  0  0  0
 17 18  1  0  0  0
 18 19  1  0  0  0
  9 10  1  0  0  0
 10  2  1  0  0  0
  2  3  1  0  0  0
  3  4  2  0  0  0
  4  5  1  0  0  0
  5  6  2  0  0  0
  6  1  1  0  0  0
  1 20  1  0  0  0
 20 22  1  0  0  0
 22 23  1  0  0  0
 23 24  2  0  0  0
 24 25  1  0  0  0
 25 26  1  0  0  0
 26 27  2  0  0  0
 27 29  1  0  0  0
 29 30  1  0  0  0
 30 31  2  0  0  0
 31 32  1  0  0  0
 32 33  1  0  0  0
 33 34  1  0  0  0
 34 35  1  0  0  0
 35 36  1  0  0  0
 36 37  1  0  0  0
  6  7  1  0  0  0
 19 14  1  0  0  0
  7  2  2  0  0  0
 27 23  1  0  0  0
 37 29  2  0  0  0
 36 32  2  0  0  0
 10 11  1  0  0  0
 20 21  1  0  0  0
 25 28  1  0  0  0
M  END
> <minimizedAffinity>
-9.86284

$$$$
OCNT-2318330


 24 26  0  0  0  0  0  0  0  0999 V2000
   -6.2046   25.2044    4.8551 C   0  0  0  0  0  0  0  0  0  0  0  0
   -5.0902   25.5005    3.9247 C   0  0  0  0  0  0  0  0  0  0  0  0
   -5.0164   25.2623    2.5645 C   0  0  0  0  0  0  0  0  0  0  0  0
   -3.8043   25.6871    2.1054 O   0  0  0  0  0  0  0  0  0  0  0  0
   -3.0691   26.2275    3.1397 N   0  0  0  0  0  0  0  0  0  0  0  0
   -3.8360   26.1064    4.2311 C   0  0  0  0  0  0  0  0  0  0  0  0
   -5.9043   24.7018    1.5526 C   0  0  0  0  0  0  0  0  0  0  0  0
   -6.1321   25.3695    0.3407 C   0  0  0  0  0  0  0  0  0  0  0  0
   -6.9860   24.8277   -0.6246 C   0  0  0  0  0  0  0  0  0  0  0  0
   -7.6217   23.6104   -0.3916 C   0  0  0  0  0  0  0  0  0  0  0  0
   -7.4023   22.9317    0.8048 C   0  0  0  0  0  0  0  0  0  0  0  0
   -6.5484   23.4732    1.7695 C   0  0  0  0  0  0  0  0  0  0  0  0
   -3.3359   26.6247    5.5398 C   0  0  0  0  0  0  0  0  0  0  0  0
   -3.7288   28.0469    5.6351 N   0  0  0  0  0  0  0  0  0  0  0  0
   -3.4495   28.5368    4.7798 H   0  0  0  0  0  0  0  0  0  0  0  0
   -3.0795   28.8192    6.9787 S   0  0  0  0  0  0  0  0  0  0  0  0
   -2.3243   29.9543    6.5036 O   0  0  0  0  0  0  0  0  0  0  0  0
   -2.4997   27.8110    7.8368 O   0  0  0  0  0  0  0  0  0  0  0  0
   -4.3545   29.4975    7.8848 C   0  0  0  0  0  0  0  0  0  0  0  0
   -5.6905   29.2068    7.7269 C   0  0  0  0  0  0  0  0  0  0  0  0
   -6.4383   29.9196    8.6127 O   0  0  0  0  0  0  0  0  0  0  0  0
   -5.5690   30.6676    9.3462 C   0  0  0  0  0  0  0  0  0  0  0  0
   -4.2810   30.4365    8.9308 C   0  0  0  0  0  0  0  0  0  0  0  0
   -2.7387   31.2289    9.6374 Br  0  0  0  0  0  0  0  0  0  0  0  0
  1  2  1  0  0  0
  2  3  2  0  0  0
  3  7  1  0  0  0
  7  8  2  0  0  0
  8  9  1  0  0  0
  9 10  2  0  0  0
 10 11  1  0  0  0
 11 12  2  0  0  0
  3  4  1  0  0  0
  4  5  1  0  0  0
  5  6  2  0  0  0
  6 13  1  0  0  0
 13 14  1  0  0  0
 14 16  1  0  0  0
 16 17  2  0  0  0
 16 18  2  0  0  0
 16 19  1  0  0  0
 19 20  2  0  0  0
 20 21  1  0  0  0
 21 22  1  0  0  0
 22 23  2  0  0  0
 23 24  1  0  0  0
  6  2  1  0  0  0
 23 19  1  0  0  0
 12  7  1  0  0  0
 14 15  1  0  0  0
M  END
> <minimizedAffinity>
-8.78025

$$$$
OCNT-2318340


 26 28  0  0  0  0  0  0  0  0999 V2000
   -5.5811   29.0078    7.5042 O   0  0  0  0  0  0  0  0  0  0  0  0
   -4.5956   29.1045    6.7820 C   0  0  0  0  0  0  0  0  0  0  0  0
   -4.6474   29.0426    5.4060 N   0  0  0  0  0  0  0  0  0  0  0  0
   -3.7942   28.8972    4.8855 H   0  0  0  0  0  0  0  0  0  0  0  0
   -3.2448   29.2588    7.3887 C   0  0  0  0  0  0  0  0  0  0  0  0
   -2.3681   28.1654    7.3452 C   0  0  0  0  0  0  0  0  0  0  0  0
   -1.0900   28.2591    7.9018 C   0  0  0  0  0  0  0  0  0  0  0  0
   -0.6909   29.4474    8.5113 C   0  0  0  0  0  0  0  0  0  0  0  0
    0.5593   29.5453    9.0555 O   0  0  0  0  0  0  0  0  0  0  0  0
   -1.5669   30.5366    8.5723 C   0  0  0  0  0  0  0  0  0  0  0  0
   -1.1090   32.0171    9.3330 Cl  0  0  0  0  0  0  0  0  0  0  0  0
   -2.8453   30.4441    8.0166 C   0  0  0  0  0  0  0  0  0  0  0  0
    1.0288   28.7020    8.9487 H   0  0  0  0  0  0  0  0  0  0  0  0
   -5.8884   28.7771    4.7130 C   0  0  0  0  0  0  0  0  0  0  0  0
   -5.9259   27.3597    4.2037 C   0  0  0  0  0  0  0  0  0  0  0  0
   -6.1583   26.2955    5.0817 C   0  0  0  0  0  0  0  0  0  0  0  0
   -6.1704   24.9723    4.6220 C   0  0  0  0  0  0  0  0  0  0  0  0
   -5.9427   24.6822    3.2665 C   0  0  0  0  0  0  0  0  0  0  0  0
   -5.7022   25.7529    2.3972 C   0  0  0  0  0  0  0  0  0  0  0  0
   -5.4675   25.5750    1.0905 F   0  0  0  0  0  0  0  0  0  0  0  0
   -5.6903   27.0727    2.8565 C   0  0  0  0  0  0  0  0  0  0  0  0
   -5.9564   23.3315    2.8084 N   0  0  0  0  0  0  0  0  0  0  0  0
   -6.8330   22.7345    1.9266 C   0  0  0  0  0  0  0  0  0  0  0  0
   -6.4336   21.4253    1.8020 C   0  0  0  0  0  0  0  0  0  0  0  0
   -5.3390   21.1795    2.5737 N   0  0  0  0  0  0  0  0  0  0  0  0
   -5.0761   22.3259    3.1618 C   0  0  0  0  0  0  0  0  0  0  0  0
  1  2  2  0  0  0
  2  3  1  0  0  0
  3 14  1  0  0  0
 14 15  1  0  0  0
 15 16  1  0  0  0
 16 17  2  0  0  0
 17 18  1  0  0  0
 18 22  1  0  0  0
 22 23  1  0  0  0
 23 24  2  0  0  0
 24 25  1  0  0  0
 25 26  2  0  0  0
 18 19  2  0  0  0
 19 20  1  0  0  0
 19 21  1  0  0  0
  2  5  1  0  0  0
  5  6  1  0  0  0
  6  7  2  0  0  0
  7  8  1  0  0  0
  8  9  1  0  0  0
  8 10  2  0  0  0
 10 11  1  0  0  0
 10 12  1  0  0  0
 21 15  2  0  0  0
 12  5  2  0  0  0
 26 22  1  0  0  0
  3  4  1  0  0  0
  9 13  1  0  0  0
M  END
> <minimizedAffinity>
-9.34568

$$$$
OCNT-2318342


 33 37  0  0  0  0  0  0  0  0999 V2000
   -7.5679   23.4179    4.9437 C   0  0  0  0  0  0  0  0  0  0  0  0
   -6.5735   24.3733    5.1348 C   0  0  0  0  0  0  0  0  0  0  0  0
   -5.7507   24.7280    4.0575 C   0  0  0  0  0  0  0  0  0  0  0  0
   -5.9443   24.0863    2.8270 C   0  0  0  0  0  0  0  0  0  0  0  0
   -5.4095   24.0838    1.5115 C   0  0  0  0  0  0  0  0  0  0  0  0
   -4.2889   24.8780    0.9529 C   0  0  0  0  0  0  0  0  0  0  0  0
   -6.0633   23.2221    0.7200 N   0  0  0  0  0  0  0  0  0  0  0  0
   -7.0394   22.6451    1.5148 O   0  0  0  0  0  0  0  0  0  0  0  0
   -6.9720   23.1589    2.7726 C   0  0  0  0  0  0  0  0  0  0  0  0
   -7.8015   22.7990    3.7678 N   0  0  0  0  0  0  0  0  0  0  0  0
  -11.4093   22.6050    8.2401 C   0  0  0  0  0  0  0  0  0  0  0  0
  -10.1566   22.6971    7.4654 C   0  0  0  0  0  0  0  0  0  0  0  0
   -9.8219   23.2754    6.2618 C   0  0  0  0  0  0  0  0  0  0  0  0
   -8.4302   23.0301    6.0557 C   0  0  0  0  0  0  0  0  0  0  0  0
   -8.0167   22.3119    7.1682 C   0  0  0  0  0  0  0  0  0  0  0  0
   -6.7243   21.7385    7.6087 C   0  0  0  0  0  0  0  0  0  0  0  0
   -9.0649   22.1064    8.0165 O   0  0  0  0  0  0  0  0  0  0  0  0
   -4.6851   25.7317    4.2327 C   0  0  0  0  0  0  0  0  0  0  0  0
   -4.7852   26.7881    3.6253 O   0  0  0  0  0  0  0  0  0  0  0  0
   -3.6843   25.3507    5.1059 N   0  0  0  0  0  0  0  0  0  0  0  0
   -3.8146   24.4859    5.6168 H   0  0  0  0  0  0  0  0  0  0  0  0
   -2.5151   26.0726    5.4272 C   0  0  0  0  0  0  0  0  0  0  0  0
   -1.4243   25.9445    4.5598 C   0  0  0  0  0  0  0  0  0  0  0  0
   -0.2363   26.6368    4.8026 C   0  0  0  0  0  0  0  0  0  0  0  0
   -0.1271   27.4680    5.9149 C   0  0  0  0  0  0  0  0  0  0  0  0
   -1.2061   27.6106    6.7966 C   0  0  0  0  0  0  0  0  0  0  0  0
   -2.3982   26.9095    6.5391 C   0  0  0  0  0  0  0  0  0  0  0  0
   -1.1088   28.5258    7.9907 C   0  0  0  0  0  0  0  0  0  0  0  0
   -1.9239   29.7140    7.8158 N   0  0  0  0  0  0  0  0  0  0  0  0
   -1.7755   30.6673    6.8463 C   0  0  0  0  0  0  0  0  0  0  0  0
   -2.8083   31.5509    7.0579 C   0  0  0  0  0  0  0  0  0  0  0  0
   -3.5800   31.1531    8.1192 N   0  0  0  0  0  0  0  0  0  0  0  0
   -3.0233   30.0457    8.5558 C   0  0  0  0  0  0  0  0  0  0  0  0
 11 12  1  0  0  0
 12 13  2  0  0  0
 13 14  1  0  0  0
 14  1  1  0  0  0
  1  2  2  0  0  0
  2  3  1  0  0  0
  3 18  1  0  0  0
 18 19  2  0  0  0
 18 20  1  0  0  0
 20 22  1  0  0  0
 22 23  1  0  0  0
 23 24  2  0  0  0
 24 25  1  0  0  0
 25 26  2  0  0  0
 26 28  1  0  0  0
 28 29  1  0  0  0
 29 30  1  0  0  0
 30 31  2  0  0  0
 31 32  1  0  0  0
 32 33  2  0  0  0
 26 27  1  0  0  0
  3  4  2  0  0  0
  4  5  1  0  0  0
  5  6  1  0  0  0
  5  7  2  0  0  0
  7  8  1  0  0  0
  8  9  1  0  0  0
  9 10  2  0  0  0
 14 15  2  0  0  0
 15 16  1  0  0  0
 15 17  1  0  0  0
 17 12  1  0  0  0
 10  1  1  0  0  0
 27 22  2  0  0  0
  9  4  1  0  0  0
 33 29  1  0  0  0
 20 21  1  0  0  0
M  END
> <minimizedAffinity>
-9.88303

$$$$
OCNT-2318348


 23 25  0  0  0  0  0  0  0  0999 V2000
   -5.0027   29.6851    7.4331 S   0  0  0  0  0  0  0  0  0  0  0  0
   -6.1523   30.5300    7.2040 O   0  0  0  0  0  0  0  0  0  0  0  0
   -4.8977   28.8170    8.5850 O   0  0  0  0  0  0  0  0  0  0  0  0
   -4.8979   28.5741    6.0465 C   0  0  0  0  0  0  0  0  0  0  0  0
   -5.7538   28.3411    4.9900 C   0  0  0  0  0  0  0  0  0  0  0  0
   -5.2637   27.3501    4.0774 C   0  0  0  0  0  0  0  0  0  0  0  0
   -5.8358   26.8268    2.8927 C   0  0  0  0  0  0  0  0  0  0  0  0
   -5.1554   25.8513    2.1600 C   0  0  0  0  0  0  0  0  0  0  0  0
   -5.8662   25.2225    0.7238 Cl  0  0  0  0  0  0  0  0  0  0  0  0
   -3.9167   25.3843    2.5755 C   0  0  0  0  0  0  0  0  0  0  0  0
   -3.3284   25.8865    3.7393 C   0  0  0  0  0  0  0  0  0  0  0  0
   -4.0145   26.8694    4.4795 C   0  0  0  0  0  0  0  0  0  0  0  0
   -3.4851   27.6310    5.9300 S   0  0  0  0  0  0  0  0  0  0  0  0
   -2.6085   30.3852    8.4841 C   0  0  0  0  0  0  0  0  0  0  0  0
   -2.9215   31.2226    9.7492 C   0  0  0  0  0  0  0  0  0  0  0  0
   -3.0586   32.6708    9.5051 N   0  0  0  0  0  0  0  0  0  0  0  0
   -4.0983   32.8906    8.4902 C   0  0  0  0  0  0  0  0  0  0  0  0
   -3.8494   32.1292    7.1757 C   0  0  0  0  0  0  0  0  0  0  0  0
   -3.6024   30.6638    7.3768 N   0  0  0  0  0  0  0  0  0  0  0  0
   -2.1676   33.0360    9.1720 H   0  0  0  0  0  0  0  0  0  0  0  0
   -1.1794   30.6039    7.9514 C   0  0  0  0  0  0  0  0  0  0  0  0
    0.6886   29.3791    8.7136 C   0  0  0  0  0  0  0  0  0  0  0  0
   -0.2294   30.4254    9.0034 O   0  0  0  0  0  0  0  0  0  0  0  0
 22 23  1  0  0  0
 23 21  1  0  0  0
 21 14  1  0  0  0
 14 15  1  0  0  0
 15 16  1  0  0  0
 16 17  1  0  0  0
 17 18  1  0  0  0
 18 19  1  0  0  0
 19  1  1  0  0  0
  1  2  2  0  0  0
  1  3  2  0  0  0
  1  4  1  0  0  0
  4  5  2  0  0  0
  5  6  1  0  0  0
  6  7  2  0  0  0
  7  8  1  0  0  0
  8  9  1  0  0  0
  8 10  2  0  0  0
 10 11  1  0  0  0
 11 12  2  0  0  0
 12 13  1  0  0  0
 19 14  1  0  0  0
 13  4  1  0  0  0
 12  6  1  0  0  0
 16 20  1  0  0  0
M  END
> <minimizedAffinity>
-7.91689

$$$$
OCNT-2318359


 30 32  0  0  0  0  0  0  0  0999 V2000
   -5.3353   24.6725    4.4959 C   0  0  0  0  0  0  0  0  0  0  0  0
   -6.3301   23.8641    5.3344 C   0  0  0  0  0  0  0  0  0  0  0  0
   -5.8546   22.8167    6.1505 C   0  0  0  0  0  0  0  0  0  0  0  0
   -6.7277   22.0557    6.9329 C   0  0  0  0  0  0  0  0  0  0  0  0
   -8.0869   22.3372    6.9115 C   0  0  0  0  0  0  0  0  0  0  0  0
   -8.9229   21.6039    7.6595 F   0  0  0  0  0  0  0  0  0  0  0  0
   -8.5739   23.3714    6.1249 C   0  0  0  0  0  0  0  0  0  0  0  0
   -9.8860   23.6448    6.1096 F   0  0  0  0  0  0  0  0  0  0  0  0
   -7.7086   24.1354    5.3440 C   0  0  0  0  0  0  0  0  0  0  0  0
   -3.4543   26.1905    5.3398 C   0  0  0  0  0  0  0  0  0  0  0  0
   -3.8899   27.2359    4.8771 O   0  0  0  0  0  0  0  0  0  0  0  0
   -4.0985   24.9762    5.2334 N   0  0  0  0  0  0  0  0  0  0  0  0
   -3.5765   24.1625    5.5300 H   0  0  0  0  0  0  0  0  0  0  0  0
   -2.1425   26.0848    6.1082 C   0  0  0  0  0  0  0  0  0  0  0  0
   -0.9064   29.7315    8.0807 C   0  0  0  0  0  0  0  0  0  0  0  0
   -0.0760   29.1245    7.1395 C   0  0  0  0  0  0  0  0  0  0  0  0
   -0.4776   27.9447    6.5026 C   0  0  0  0  0  0  0  0  0  0  0  0
   -1.7136   27.3552    6.7998 C   0  0  0  0  0  0  0  0  0  0  0  0
   -2.5460   27.9726    7.7400 C   0  0  0  0  0  0  0  0  0  0  0  0
   -2.1403   29.1485    8.3760 C   0  0  0  0  0  0  0  0  0  0  0  0
   -1.7306   31.5055    9.4292 C   0  0  0  0  0  0  0  0  0  0  0  0
   -0.6350   30.8790    8.7741 O   0  0  0  0  0  0  0  0  0  0  0  0
   -5.2419   24.2783    2.9323 C   0  0  0  0  0  0  0  0  0  0  0  0
   -3.8195   23.7489    2.6110 C   0  0  0  0  0  0  0  0  0  0  0  0
   -5.4955   25.5141    2.0373 C   0  0  0  0  0  0  0  0  0  0  0  0
   -6.2529   23.1909    2.6640 N   0  0  0  0  0  0  0  0  0  0  0  0
   -5.7739   21.8359    2.3718 C   0  0  0  0  0  0  0  0  0  0  0  0
   -5.8328   21.6608    0.8646 C   0  0  0  0  0  0  0  0  0  0  0  0
   -6.8318   22.6960    0.3821 C   0  0  0  0  0  0  0  0  0  0  0  0
   -7.2558   23.4642    1.6250 C   0  0  0  0  0  0  0  0  0  0  0  0
 21 22  1  0  0  0
 22 15  1  0  0  0
 15 16  1  0  0  0
 16 17  2  0  0  0
 17 18  1  0  0  0
 18 14  1  0  0  0
 14 10  1  0  0  0
 10 11  2  0  0  0
 10 12  1  0  0  0
 12  1  1  0  0  0
  1  2  1  0  0  0
  2  3  1  0  0  0
  3  4  2  0  0  0
  4  5  1  0  0  0
  5  6  1  0  0  0
  5  7  2  0  0  0
  7  8  1  0  0  0
  7  9  1  0  0  0
  1 23  1  0  0  0
 23 24  1  0  0  0
 23 25  1  0  0  0
 23 26  1  0  0  0
 26 27  1  0  0  0
 27 28  1  0  0  0
 28 29  1  0  0  0
 29 30  1  0  0  0
 18 19  2  0  0  0
 19 20  1  0  0  0
 20 15  2  0  0  0
  9  2  2  0  0  0
 30 26  1  0  0  0
 12 13  1  0  0  0
M  END
> <minimizedAffinity>
-9.24978

$$$$
OCNT-2318363


 24 26  0  0  0  0  0  0  0  0999 V2000
   -6.4112   30.4957    8.2841 C   0  0  0  0  0  0  0  0  0  0  0  0
   -2.7123   30.8651    9.1202 C   0  0  0  0  0  0  0  0  0  0  0  0
   -3.9396   30.3135    8.7678 C   0  0  0  0  0  0  0  0  0  0  0  0
   -5.1003   31.1077    8.7061 C   0  0  0  0  0  0  0  0  0  0  0  0
   -5.0139   32.4745    8.9946 C   0  0  0  0  0  0  0  0  0  0  0  0
   -3.7926   33.0330    9.3591 C   0  0  0  0  0  0  0  0  0  0  0  0
   -2.6537   32.2295    9.4228 C   0  0  0  0  0  0  0  0  0  0  0  0
   -1.5137   30.2320    9.2205 O   0  0  0  0  0  0  0  0  0  0  0  0
   -1.3285   28.0788    8.0273 C   0  0  0  0  0  0  0  0  0  0  0  0
   -0.8511   29.5308    8.1566 C   0  0  0  0  0  0  0  0  0  0  0  0
   -0.8763   30.2936    6.8251 C   0  0  0  0  0  0  0  0  0  0  0  0
    0.6204   29.4837    8.6221 C   0  0  0  0  0  0  0  0  0  0  0  0
   -6.1505   29.3221    7.5049 O   0  0  0  0  0  0  0  0  0  0  0  0
   -6.6269   29.3385    6.2354 C   0  0  0  0  0  0  0  0  0  0  0  0
   -7.6037   29.9625    5.8447 O   0  0  0  0  0  0  0  0  0  0  0  0
   -5.7911   28.4872    5.3385 C   0  0  0  0  0  0  0  0  0  0  0  0
   -4.6448   27.9084    5.7535 C   0  0  0  0  0  0  0  0  0  0  0  0
   -3.9179   27.1228    4.8644 N   0  0  0  0  0  0  0  0  0  0  0  0
   -2.7403   26.4417    5.0465 C   0  0  0  0  0  0  0  0  0  0  0  0
   -2.3594   25.8084    3.9575 N   0  0  0  0  0  0  0  0  0  0  0  0
   -3.3281   26.0820    3.0230 C   0  0  0  0  0  0  0  0  0  0  0  0
   -4.3048   26.8920    3.5541 C   0  0  0  0  0  0  0  0  0  0  0  0
   -5.5107   27.4884    3.1025 C   0  0  0  0  0  0  0  0  0  0  0  0
   -6.2230   28.2505    3.9557 C   0  0  0  0  0  0  0  0  0  0  0  0
  9 10  1  0  0  0
 10 11  1  0  0  0
 10 12  1  0  0  0
 10  8  1  0  0  0
  8  2  1  0  0  0
  2  3  2  0  0  0
  3  4  1  0  0  0
  4  1  1  0  0  0
  1 13  1  0  0  0
 13 14  1  0  0  0
 14 15  2  0  0  0
 14 16  1  0  0  0
 16 17  2  0  0  0
 17 18  1  0  0  0
 18 19  1  0  0  0
 19 20  2  0  0  0
 20 21  1  0  0  0
 21 22  2  0  0  0
 22 23  1  0  0  0
 23 24  2  0  0  0
  4  5  2  0  0  0
  5  6  1  0  0  0
  6  7  2  0  0  0
  7  2  1  0  0  0
 24 16  1  0  0  0
 22 18  1  0  0  0
M  END
> <minimizedAffinity>
-8.77518

$$$$
OCNT-2318369


 30 33  0  0  0  0  0  0  0  0999 V2000
   -1.7231   27.4213    7.9355 O   0  0  0  0  0  0  0  0  0  0  0  0
   -1.1281   27.8161    6.9333 C   0  0  0  0  0  0  0  0  0  0  0  0
   -1.2096   27.1466    5.7294 N   0  0  0  0  0  0  0  0  0  0  0  0
   -0.6662   27.4653    4.9396 H   0  0  0  0  0  0  0  0  0  0  0  0
   -0.2494   29.0562    6.9163 C   0  0  0  0  0  0  0  0  0  0  0  0
   -0.7794   30.1176    7.8260 C   0  0  0  0  0  0  0  0  0  0  0  0
   -0.2306   30.5058    9.0340 C   0  0  0  0  0  0  0  0  0  0  0  0
   -1.0095   31.4977    9.5654 N   0  0  0  0  0  0  0  0  0  0  0  0
   -2.0558   31.7804    8.7211 C   0  0  0  0  0  0  0  0  0  0  0  0
   -3.0852   32.7051    8.8408 C   0  0  0  0  0  0  0  0  0  0  0  0
   -4.0124   32.7906    7.8604 N   0  0  0  0  0  0  0  0  0  0  0  0
   -3.9123   31.9691    6.7940 C   0  0  0  0  0  0  0  0  0  0  0  0
   -2.9113   31.0260    6.6110 C   0  0  0  0  0  0  0  0  0  0  0  0
   -1.9420   30.9307    7.6211 C   0  0  0  0  0  0  0  0  0  0  0  0
   -0.8436   31.9552   10.4514 H   0  0  0  0  0  0  0  0  0  0  0  0
   -2.0697   25.9827    5.5516 C   0  0  0  0  0  0  0  0  0  0  0  0
   -3.3439   26.2959    4.7417 C   0  0  0  0  0  0  0  0  0  0  0  0
   -3.8466   27.6113    5.0168 O   0  0  0  0  0  0  0  0  0  0  0  0
   -3.2559   28.0357    5.6756 H   0  0  0  0  0  0  0  0  0  0  0  0
   -3.0829   26.2081    3.2211 C   0  0  0  0  0  0  0  0  0  0  0  0
   -3.8039   25.1274    2.5249 N   0  0  0  0  0  0  0  0  0  0  0  0
   -4.3811   24.1482    3.4617 C   0  0  0  0  0  0  0  0  0  0  0  0
   -4.9487   22.9433    2.6955 C   0  0  0  0  0  0  0  0  0  0  0  0
   -5.8228   23.3468    1.5366 C   0  0  0  0  0  0  0  0  0  0  0  0
   -6.6526   22.4039    0.9166 C   0  0  0  0  0  0  0  0  0  0  0  0
   -7.4367   22.7691   -0.1770 C   0  0  0  0  0  0  0  0  0  0  0  0
   -7.3948   24.0744   -0.6612 C   0  0  0  0  0  0  0  0  0  0  0  0
   -6.5630   25.0156   -0.0563 C   0  0  0  0  0  0  0  0  0  0  0  0
   -5.7592   24.6587    1.0359 C   0  0  0  0  0  0  0  0  0  0  0  0
   -4.8871   25.7022    1.7000 C   0  0  0  0  0  0  0  0  0  0  0  0
  1  2  2  0  0  0
  2  5  1  0  0  0
  5  6  1  0  0  0
  6  7  2  0  0  0
  7  8  1  0  0  0
  8  9  1  0  0  0
  9 10  2  0  0  0
 10 11  1  0  0  0
 11 12  2  0  0  0
 12 13  1  0  0  0
 13 14  2  0  0  0
  2  3  1  0  0  0
  3 16  1  0  0  0
 16 17  1  0  0  0
 17 18  1  0  0  0
 17 20  1  0  0  0
 20 21  1  0  0  0
 21 22  1  0  0  0
 22 23  1  0  0  0
 23 24  1  0  0  0
 24 25  2  0  0  0
 25 26  1  0  0  0
 26 27  2  0  0  0
 27 28  1  0  0  0
 28 29  2  0  0  0
 29 30  1  0  0  0
 14  6  1  0  0  0
 30 21  1  0  0  0
 14  9  1  0  0  0
 29 24  1  0  0  0
  8 15  1  0  0  0
  3  4  1  0  0  0
 18 19  1  0  0  0
M  END
> <minimizedAffinity>
-10.19155

$$$$
OCNT-2318390


 22 25  0  0  0  0  0  0  0  0999 V2000
   -5.4410   32.1557    7.9568 C   0  0  0  0  0  0  0  0  0  0  0  0
   -4.5312   31.0964    7.6044 N   0  0  0  0  0  0  0  0  0  0  0  0
   -3.1963   31.0502    7.9326 C   0  0  0  0  0  0  0  0  0  0  0  0
   -2.6172   29.9668    7.4555 N   0  0  0  0  0  0  0  0  0  0  0  0
   -3.6018   29.3015    6.7753 C   0  0  0  0  0  0  0  0  0  0  0  0
   -4.7979   29.9742    6.8768 C   0  0  0  0  0  0  0  0  0  0  0  0
   -6.0583   29.5175    6.2584 C   0  0  0  0  0  0  0  0  0  0  0  0
   -5.9481   28.0003    5.9747 C   0  0  0  0  0  0  0  0  0  0  0  0
   -4.6580   27.5917    5.3655 N   0  0  0  0  0  0  0  0  0  0  0  0
   -4.4947   26.6236    4.3738 C   0  0  0  0  0  0  0  0  0  0  0  0
   -3.3810   26.3498    3.9340 O   0  0  0  0  0  0  0  0  0  0  0  0
   -5.6606   26.0145    3.9633 N   0  0  0  0  0  0  0  0  0  0  0  0
   -3.4059   28.0215    6.0395 C   0  0  0  0  0  0  0  0  0  0  0  0
   -6.3996   25.9471    4.6421 H   0  0  0  0  0  0  0  0  0  0  0  0
   -5.7899   25.1880    2.8629 C   0  0  0  0  0  0  0  0  0  0  0  0
   -5.7858   25.5558    1.5341 C   0  0  0  0  0  0  0  0  0  0  0  0
   -5.9010   24.4014    0.7060 C   0  0  0  0  0  0  0  0  0  0  0  0
   -5.9726   23.2235    1.3183 N   0  0  0  0  0  0  0  0  0  0  0  0
   -5.9036   23.4900    2.9590 S   0  0  0  0  0  0  0  0  0  0  0  0
   -2.4292   32.1193    8.7638 C   0  0  0  0  0  0  0  0  0  0  0  0
   -1.0905   31.7642    9.3568 C   0  0  0  0  0  0  0  0  0  0  0  0
   -2.2868   31.9158   10.2499 C   0  0  0  0  0  0  0  0  0  0  0  0
  1  2  1  0  0  0
  2  3  1  0  0  0
  3 20  1  0  0  0
 20 21  1  0  0  0
 21 22  1  0  0  0
  3  4  2  0  0  0
  4  5  1  0  0  0
  5  6  2  0  0  0
  6  7  1  0  0  0
  7  8  1  0  0  0
  8  9  1  0  0  0
  9 10  1  0  0  0
 10 11  2  0  0  0
 10 12  1  0  0  0
 12 15  1  0  0  0
 15 16  2  0  0  0
 16 17  1  0  0  0
 17 18  2  0  0  0
 18 19  1  0  0  0
  9 13  1  0  0  0
  6  2  1  0  0  0
 19 15  1  0  0  0
 22 20  1  0  0  0
 13  5  1  0  0  0
 12 14  1  0  0  0
M  END
> <minimizedAffinity>
-8.09433

$$$$
OCNT-2318391


 27 30  0  0  0  0  0  0  0  0999 V2000
   -3.2628   26.5884    5.9782 N   0  0  0  0  0  0  0  0  0  0  0  0
   -2.4187   26.0443    5.7954 H   0  0  0  0  0  0  0  0  0  0  0  0
   -6.3174   26.5129    5.6749 O   0  0  0  0  0  0  0  0  0  0  0  0
   -5.3533   25.8585    4.8698 C   0  0  0  0  0  0  0  0  0  0  0  0
   -5.8407   25.6913    3.4298 C   0  0  0  0  0  0  0  0  0  0  0  0
   -4.6181   25.9781    2.5353 C   0  0  0  0  0  0  0  0  0  0  0  0
   -3.4298   26.0781    3.5025 C   0  0  0  0  0  0  0  0  0  0  0  0
   -4.0611   26.6866    4.7522 C   0  0  0  0  0  0  0  0  0  0  0  0
   -5.8393   26.7957    6.4782 H   0  0  0  0  0  0  0  0  0  0  0  0
   -4.3842   24.9385    1.4389 C   0  0  0  0  0  0  0  0  0  0  0  0
   -5.5910   24.5917    0.7164 N   0  0  0  0  0  0  0  0  0  0  0  0
   -6.2988   23.4291    0.8410 C   0  0  0  0  0  0  0  0  0  0  0  0
   -7.3678   23.5735   -0.0125 C   0  0  0  0  0  0  0  0  0  0  0  0
   -7.3292   24.7928   -0.6379 N   0  0  0  0  0  0  0  0  0  0  0  0
   -6.2503   25.3849   -0.1774 C   0  0  0  0  0  0  0  0  0  0  0  0
   -2.8887   27.8903    6.5534 C   0  0  0  0  0  0  0  0  0  0  0  0
   -1.8134   27.6985    7.6276 C   0  0  0  0  0  0  0  0  0  0  0  0
   -1.3629   29.0644    8.1663 C   0  0  0  0  0  0  0  0  0  0  0  0
   -2.4537   30.0018    8.4701 N   0  0  0  0  0  0  0  0  0  0  0  0
   -3.7684   29.3618    8.4524 C   0  0  0  0  0  0  0  0  0  0  0  0
   -4.0973   28.6399    7.1426 C   0  0  0  0  0  0  0  0  0  0  0  0
   -2.4198   31.2289    7.6593 C   0  0  0  0  0  0  0  0  0  0  0  0
   -3.3599   32.2745    8.1628 C   0  0  0  0  0  0  0  0  0  0  0  0
   -3.4997   32.9268    9.3720 C   0  0  0  0  0  0  0  0  0  0  0  0
   -4.5796   33.8294    9.2189 C   0  0  0  0  0  0  0  0  0  0  0  0
   -5.0248   33.6778    7.9272 C   0  0  0  0  0  0  0  0  0  0  0  0
   -4.2870   32.7433    7.2760 O   0  0  0  0  0  0  0  0  0  0  0  0
  3  4  1  0  0  0
  4  5  1  0  0  0
  5  6  1  0  0  0
  6 10  1  0  0  0
 10 11  1  0  0  0
 11 12  1  0  0  0
 12 13  2  0  0  0
 13 14  1  0  0  0
 14 15  2  0  0  0
  6  7  1  0  0  0
  7  8  1  0  0  0
  8  1  1  0  0  0
  1 16  1  0  0  0
 16 17  1  0  0  0
 17 18  1  0  0  0
 18 19  1  0  0  0
 19 22  1  0  0  0
 22 23  1  0  0  0
 23 24  2  0  0  0
 24 25  1  0  0  0
 25 26  2  0  0  0
 26 27  1  0  0  0
 19 20  1  0  0  0
 20 21  1  0  0  0
  8  4  1  0  0  0
 21 16  1  0  0  0
 15 11  1  0  0  0
 27 23  1  0  0  0
  3  9  1  0  0  0
  1  2  1  0  0  0
M  END
> <minimizedAffinity>
-8.88997

$$$$
OCNT-2318397


 24 26  0  0  0  0  0  0  0  0999 V2000
   -5.8607   28.8853    3.3943 C   0  0  0  0  0  0  0  0  0  0  0  0
   -6.0544   28.0578    4.6700 C   0  0  0  0  0  0  0  0  0  0  0  0
   -6.0281   26.5373    4.3530 C   0  0  0  0  0  0  0  0  0  0  0  0
   -4.7000   26.0085    4.0195 N   0  0  0  0  0  0  0  0  0  0  0  0
   -4.4468   24.9167    3.1883 C   0  0  0  0  0  0  0  0  0  0  0  0
   -3.3090   24.6654    2.7844 O   0  0  0  0  0  0  0  0  0  0  0  0
   -3.5575   26.7453    4.5571 C   0  0  0  0  0  0  0  0  0  0  0  0
   -3.8901   27.5112    5.8453 C   0  0  0  0  0  0  0  0  0  0  0  0
   -5.0321   28.4359    5.6797 N   0  0  0  0  0  0  0  0  0  0  0  0
   -5.5547   24.0004    2.7590 C   0  0  0  0  0  0  0  0  0  0  0  0
   -6.0737   24.1506    1.4883 C   0  0  0  0  0  0  0  0  0  0  0  0
   -7.0591   23.2567    1.1191 C   0  0  0  0  0  0  0  0  0  0  0  0
   -7.4905   22.2793    1.9544 N   0  0  0  0  0  0  0  0  0  0  0  0
   -6.9055   22.2134    3.1587 C   0  0  0  0  0  0  0  0  0  0  0  0
   -5.9510   23.0303    3.6133 N   0  0  0  0  0  0  0  0  0  0  0  0
   -7.6843   23.3678   -0.2530 C   0  0  0  0  0  0  0  0  0  0  0  0
   -8.5006   24.4543   -0.3702 F   0  0  0  0  0  0  0  0  0  0  0  0
   -8.4626   22.2892   -0.5571 F   0  0  0  0  0  0  0  0  0  0  0  0
   -5.3552   29.3239    6.7100 C   0  0  0  0  0  0  0  0  0  0  0  0
   -6.5904   29.9833    6.7641 C   0  0  0  0  0  0  0  0  0  0  0  0
   -6.8702   30.8703    7.7980 C   0  0  0  0  0  0  0  0  0  0  0  0
   -6.0130   31.1613    8.7924 N   0  0  0  0  0  0  0  0  0  0  0  0
   -4.8211   30.5411    8.7355 C   0  0  0  0  0  0  0  0  0  0  0  0
   -4.4573   29.6431    7.7376 C   0  0  0  0  0  0  0  0  0  0  0  0
  1  2  1  0  0  0
  2  3  1  0  0  0
  3  4  1  0  0  0
  4  5  1  0  0  0
  5  6  2  0  0  0
  5 10  1  0  0  0
 10 11  2  0  0  0
 11 12  1  0  0  0
 12 16  1  0  0  0
 16 17  1  0  0  0
 16 18  1  0  0  0
 12 13  2  0  0  0
 13 14  1  0  0  0
 14 15  2  0  0  0
  4  7  1  0  0  0
  7  8  1  0  0  0
  8  9  1  0  0  0
  9 19  1  0  0  0
 19 20  2  0  0  0
 20 21  1  0  0  0
 21 22  2  0  0  0
 22 23  1  0  0  0
 23 24  2  0  0  0
  9  2  1  0  0  0
 24 19  1  0  0  0
 15 10  1  0  0  0
M  END
> <minimizedAffinity>
-8.42673

$$$$
OCNT-2318399


 30 32  0  0  0  0  0  0  0  0999 V2000
   -3.3050   26.3305    4.0372 C   0  0  0  0  0  0  0  0  0  0  0  0
   -2.0344   25.8528    3.6855 C   0  0  0  0  0  0  0  0  0  0  0  0
   -0.9749   25.9616    4.5879 C   0  0  0  0  0  0  0  0  0  0  0  0
   -1.1821   26.5403    5.8399 C   0  0  0  0  0  0  0  0  0  0  0  0
   -2.4489   27.0027    6.1970 C   0  0  0  0  0  0  0  0  0  0  0  0
   -3.5153   26.8862    5.3067 C   0  0  0  0  0  0  0  0  0  0  0  0
   -5.2028   27.2138    3.0018 O   0  0  0  0  0  0  0  0  0  0  0  0
   -4.4669   26.2402    3.1066 C   0  0  0  0  0  0  0  0  0  0  0  0
   -4.5676   25.0517    2.4044 N   0  0  0  0  0  0  0  0  0  0  0  0
   -3.8027   24.3964    2.4942 H   0  0  0  0  0  0  0  0  0  0  0  0
   -5.5828   24.6857    1.4927 C   0  0  0  0  0  0  0  0  0  0  0  0
   -6.4215   23.6306    1.8554 C   0  0  0  0  0  0  0  0  0  0  0  0
   -7.4297   23.2527    0.9827 C   0  0  0  0  0  0  0  0  0  0  0  0
   -7.6548   23.8481   -0.2048 N   0  0  0  0  0  0  0  0  0  0  0  0
   -6.8336   24.8682   -0.5316 C   0  0  0  0  0  0  0  0  0  0  0  0
   -5.7983   25.3189    0.2730 C   0  0  0  0  0  0  0  0  0  0  0  0
   -2.6589   27.5548    7.5033 N   0  0  0  0  0  0  0  0  0  0  0  0
   -2.2187   26.9768    8.2214 H   0  0  0  0  0  0  0  0  0  0  0  0
   -2.0353   29.1329    7.7117 S   0  0  0  0  0  0  0  0  0  0  0  0
   -1.0722   29.0129    8.7893 O   0  0  0  0  0  0  0  0  0  0  0  0
   -1.6763   29.7379    6.4487 O   0  0  0  0  0  0  0  0  0  0  0  0
   -3.4409   30.0051    8.3529 C   0  0  0  0  0  0  0  0  0  0  0  0
   -4.5660   29.2696    8.7563 C   0  0  0  0  0  0  0  0  0  0  0  0
   -5.6824   29.9260    9.2769 C   0  0  0  0  0  0  0  0  0  0  0  0
   -5.6775   31.3149    9.3989 C   0  0  0  0  0  0  0  0  0  0  0  0
   -4.5553   32.0427    8.9998 C   0  0  0  0  0  0  0  0  0  0  0  0
   -4.5740   33.7619    9.1601 Cl  0  0  0  0  0  0  0  0  0  0  0  0
   -3.4308   31.3943    8.4748 C   0  0  0  0  0  0  0  0  0  0  0  0
   -2.3419   32.1235    8.0833 O   0  0  0  0  0  0  0  0  0  0  0  0
   -2.5142   33.0603    8.2970 H   0  0  0  0  0  0  0  0  0  0  0  0
  7  8  2  0  0  0
  8  9  1  0  0  0
  9 11  1  0  0  0
 11 12  2  0  0  0
 12 13  1  0  0  0
 13 14  2  0  0  0
 14 15  1  0  0  0
 15 16  2  0  0  0
  8  1  1  0  0  0
  1  2  1  0  0  0
  2  3  2  0  0  0
  3  4  1  0  0  0
  4  5  2  0  0  0
  5 17  1  0  0  0
 17 19  1  0  0  0
 19 20  2  0  0  0
 19 21  2  0  0  0
 19 22  1  0  0  0
 22 23  2  0  0  0
 23 24  1  0  0  0
 24 25  2  0  0  0
 25 26  1  0  0  0
 26 27  1  0  0  0
 26 28  2  0  0  0
 28 29  1  0  0  0
  5  6  1  0  0  0
 16 11  1  0  0  0
  6  1  2  0  0  0
 28 22  1  0  0  0
  9 10  1  0  0  0
 17 18  1  0  0  0
 29 30  1  0  0  0
M  END
> <minimizedAffinity>
-9.88907

$$$$
OCNT-2318401


 23 26  0  0  0  0  0  0  0  0999 V2000
   -4.8246   26.8012    3.4547 C   0  0  0  0  0  0  0  0  0  0  0  0
   -5.8405   27.4323    3.1601 O   0  0  0  0  0  0  0  0  0  0  0  0
   -4.2923   26.8451    4.7558 N   0  0  0  0  0  0  0  0  0  0  0  0
   -3.1667   26.0141    5.1884 C   0  0  0  0  0  0  0  0  0  0  0  0
   -2.4772   26.4411    6.4844 C   0  0  0  0  0  0  0  0  0  0  0  0
   -1.9576   27.8729    6.4277 C   0  0  0  0  0  0  0  0  0  0  0  0
   -2.9752   28.9002    6.4276 N   0  0  0  0  0  0  0  0  0  0  0  0
   -2.6176   30.1618    6.7299 N   0  0  0  0  0  0  0  0  0  0  0  0
   -3.6926   30.9259    6.6037 N   0  0  0  0  0  0  0  0  0  0  0  0
   -4.7306   30.1294    6.2204 C   0  0  0  0  0  0  0  0  0  0  0  0
   -4.3043   28.8228    6.1149 C   0  0  0  0  0  0  0  0  0  0  0  0
   -5.0383   27.5886    5.7643 C   0  0  0  0  0  0  0  0  0  0  0  0
   -4.0783   25.9420    2.4494 C   0  0  0  0  0  0  0  0  0  0  0  0
   -5.2515   21.2629    2.9149 C   0  0  0  0  0  0  0  0  0  0  0  0
   -5.2492   22.6391    2.3626 C   0  0  0  0  0  0  0  0  0  0  0  0
   -4.4501   23.5793    2.8914 N   0  0  0  0  0  0  0  0  0  0  0  0
   -4.7559   24.6909    2.1772 N   0  0  0  0  0  0  0  0  0  0  0  0
   -5.6357   24.4652    1.1546 C   0  0  0  0  0  0  0  0  0  0  0  0
   -6.0564   25.3586    0.2349 N   0  0  0  0  0  0  0  0  0  0  0  0
   -6.9603   24.8344   -0.6249 C   0  0  0  0  0  0  0  0  0  0  0  0
   -7.4238   23.5234   -0.6176 C   0  0  0  0  0  0  0  0  0  0  0  0
   -6.9391   22.6352    0.3445 C   0  0  0  0  0  0  0  0  0  0  0  0
   -6.0038   23.1324    1.2646 C   0  0  0  0  0  0  0  0  0  0  0  0
 14 15  1  0  0  0
 15 16  2  0  0  0
 16 17  1  0  0  0
 17 13  1  0  0  0
 13  1  1  0  0  0
  1  2  2  0  0  0
  1  3  1  0  0  0
  3  4  1  0  0  0
  4  5  1  0  0  0
  5  6  1  0  0  0
  6  7  1  0  0  0
  7  8  1  0  0  0
  8  9  2  0  0  0
  9 10  1  0  0  0
 10 11  2  0  0  0
 11 12  1  0  0  0
 17 18  1  0  0  0
 18 19  1  0  0  0
 19 20  2  0  0  0
 20 21  1  0  0  0
 21 22  2  0  0  0
 22 23  1  0  0  0
 23 15  1  0  0  0
 12  3  1  0  0  0
 23 18  2  0  0  0
 11  7  1  0  0  0
M  END
> <minimizedAffinity>
-9.26646

$$$$
OCNT-2318404


 31 34  0  0  0  0  0  0  0  0999 V2000
   -5.9868   27.3246    5.2175 C   0  0  0  0  0  0  0  0  0  0  0  0
   -7.1342   27.9559    6.0360 C   0  0  0  0  0  0  0  0  0  0  0  0
   -7.1832   29.4310    5.6177 C   0  0  0  0  0  0  0  0  0  0  0  0
   -6.3663   29.5417    4.3331 C   0  0  0  0  0  0  0  0  0  0  0  0
   -6.1032   28.1040    3.8950 C   0  0  0  0  0  0  0  0  0  0  0  0
   -3.4626   27.3323    5.3856 C   0  0  0  0  0  0  0  0  0  0  0  0
   -3.3265   26.7379    4.3210 O   0  0  0  0  0  0  0  0  0  0  0  0
   -4.7106   27.6342    5.8980 N   0  0  0  0  0  0  0  0  0  0  0  0
   -4.7387   28.3015    6.6544 H   0  0  0  0  0  0  0  0  0  0  0  0
   -1.0118   27.4029    6.3091 C   0  0  0  0  0  0  0  0  0  0  0  0
   -2.3455   27.7966    6.1889 C   0  0  0  0  0  0  0  0  0  0  0  0
   -2.5872   28.8645    7.0118 O   0  0  0  0  0  0  0  0  0  0  0  0
   -1.4359   29.1545    7.6669 C   0  0  0  0  0  0  0  0  0  0  0  0
   -1.2760   30.1781    8.5974 C   0  0  0  0  0  0  0  0  0  0  0  0
    0.0007   30.3267    9.1487 C   0  0  0  0  0  0  0  0  0  0  0  0
    1.0509   29.4838    8.7734 C   0  0  0  0  0  0  0  0  0  0  0  0
    0.8551   28.4593    7.8355 C   0  0  0  0  0  0  0  0  0  0  0  0
   -0.4257   28.2895    7.2721 C   0  0  0  0  0  0  0  0  0  0  0  0
    0.2970   26.8280    4.2396 C   0  0  0  0  0  0  0  0  0  0  0  0
   -0.2838   26.3333    5.5577 C   0  0  0  0  0  0  0  0  0  0  0  0
   -6.1541   25.7898    5.0368 C   0  0  0  0  0  0  0  0  0  0  0  0
   -5.7800   25.2851    3.7246 N   0  0  0  0  0  0  0  0  0  0  0  0
   -5.4115   23.9790    3.5070 C   0  0  0  0  0  0  0  0  0  0  0  0
   -5.4307   23.1271    4.3936 O   0  0  0  0  0  0  0  0  0  0  0  0
   -5.6868   25.9603    2.9715 H   0  0  0  0  0  0  0  0  0  0  0  0
   -5.0725   23.6009    2.0701 C   0  0  0  0  0  0  0  0  0  0  0  0
   -5.1237   24.7651    1.1078 C   0  0  0  0  0  0  0  0  0  0  0  0
   -6.4803   24.8432    0.6370 O   0  0  0  0  0  0  0  0  0  0  0  0
   -7.1178   23.5713    0.8510 C   0  0  0  0  0  0  0  0  0  0  0  0
   -7.6783   23.0511   -0.4594 C   0  0  0  0  0  0  0  0  0  0  0  0
   -6.0881   22.6474    1.4824 C   0  0  0  0  0  0  0  0  0  0  0  0
 19 20  1  0  0  0
 20 10  1  0  0  0
 10 11  2  0  0  0
 11  6  1  0  0  0
  6  7  2  0  0  0
  6  8  1  0  0  0
  8  1  1  0  0  0
  1 21  1  0  0  0
 21 22  1  0  0  0
 22 23  1  0  0  0
 23 24  2  0  0  0
 23 26  1  0  0  0
 26 27  1  0  0  0
 27 28  1  0  0  0
 28 29  1  0  0  0
 29 30  1  0  0  0
 29 31  1  0  0  0
  1  2  1  0  0  0
  2  3  1  0  0  0
  3  4  1  0  0  0
  4  5  1  0  0  0
 11 12  1  0  0  0
 12 13  1  0  0  0
 13 14  2  0  0  0
 14 15  1  0  0  0
 15 16  2  0  0  0
 16 17  1  0  0  0
 17 18  2  0  0  0
 18 10  1  0  0  0
  5  1  1  0  0  0
 18 13  1  0  0  0
 31 26  1  0  0  0
  8  9  1  0  0  0
 22 25  1  0  0  0
M  END
> <minimizedAffinity>
-10.01279

$$$$
OCNT-2318405


 26 28  0  0  0  0  0  0  0  0999 V2000
   -4.4440   28.5208    7.4301 N   0  0  0  0  0  0  0  0  0  0  0  0
   -4.4727   28.8436    8.3979 H   0  0  0  0  0  0  0  0  0  0  0  0
   -3.3193   29.1756    6.7414 C   0  0  0  0  0  0  0  0  0  0  0  0
   -2.7169   30.2829    7.5837 C   0  0  0  0  0  0  0  0  0  0  0  0
   -3.1592   31.6094    7.4606 C   0  0  0  0  0  0  0  0  0  0  0  0
   -2.6200   32.6215    8.2571 C   0  0  0  0  0  0  0  0  0  0  0  0
   -1.6204   32.3238    9.1779 C   0  0  0  0  0  0  0  0  0  0  0  0
   -1.1497   31.0171    9.2874 C   0  0  0  0  0  0  0  0  0  0  0  0
   -1.6863   30.0032    8.4903 C   0  0  0  0  0  0  0  0  0  0  0  0
   -1.0981   28.7785    8.6361 O   0  0  0  0  0  0  0  0  0  0  0  0
   -1.6082   27.7095    7.8316 C   0  0  0  0  0  0  0  0  0  0  0  0
   -2.1806   28.1650    6.4863 C   0  0  0  0  0  0  0  0  0  0  0  0
   -2.6131   26.9713    5.6380 C   0  0  0  0  0  0  0  0  0  0  0  0
   -2.8813   25.8412    6.4656 O   0  0  0  0  0  0  0  0  0  0  0  0
   -2.0400   25.5672    6.8704 H   0  0  0  0  0  0  0  0  0  0  0  0
   -5.7856   28.6291    6.8379 C   0  0  0  0  0  0  0  0  0  0  0  0
   -5.8510   28.0514    5.4296 C   0  0  0  0  0  0  0  0  0  0  0  0
   -5.9658   26.6554    5.2714 C   0  0  0  0  0  0  0  0  0  0  0  0
   -6.0249   26.0799    4.0004 C   0  0  0  0  0  0  0  0  0  0  0  0
   -5.9668   26.8940    2.8769 C   0  0  0  0  0  0  0  0  0  0  0  0
   -6.0218   26.3419    1.6582 F   0  0  0  0  0  0  0  0  0  0  0  0
   -5.8457   28.2694    2.9990 C   0  0  0  0  0  0  0  0  0  0  0  0
   -5.7861   28.8355    4.2690 C   0  0  0  0  0  0  0  0  0  0  0  0
   -5.6401   30.1650    4.3514 F   0  0  0  0  0  0  0  0  0  0  0  0
   -6.4628   30.5002    8.4578 C   0  0  0  0  0  0  0  0  0  0  0  0
   -6.5050   29.9812    7.0248 C   0  0  0  0  0  0  0  0  0  0  0  0
 25 26  1  0  0  0
 26 16  1  0  0  0
 16  1  1  0  0  0
  1  3  1  0  0  0
  3  4  1  0  0  0
  4  5  2  0  0  0
  5  6  1  0  0  0
  6  7  2  0  0  0
  7  8  1  0  0  0
  8  9  2  0  0  0
  9 10  1  0  0  0
 10 11  1  0  0  0
 11 12  1  0  0  0
 12 13  1  0  0  0
 13 14  1  0  0  0
 16 17  1  0  0  0
 17 18  1  0  0  0
 18 19  2  0  0  0
 19 20  1  0  0  0
 20 21  1  0  0  0
 20 22  2  0  0  0
 22 23  1  0  0  0
 23 24  1  0  0  0
 12  3  1  0  0  0
 23 17  2  0  0  0
  9  4  1  0  0  0
  1  2  1  0  0  0
 14 15  1  0  0  0
M  END
> <minimizedAffinity>
-9.14537

$$$$
OCNT-2318428


 26 28  0  0  0  0  0  0  0  0999 V2000
   -3.1984   28.1218    6.2731 C   0  0  0  0  0  0  0  0  0  0  0  0
   -2.8752   26.7566    5.5765 C   0  0  0  0  0  0  0  0  0  0  0  0
   -2.1797   25.9372    6.1956 O   0  0  0  0  0  0  0  0  0  0  0  0
   -3.4653   26.3967    4.3636 N   0  0  0  0  0  0  0  0  0  0  0  0
   -4.2714   27.2803    3.5352 C   0  0  0  0  0  0  0  0  0  0  0  0
   -5.1247   26.5307    2.5516 C   0  0  0  0  0  0  0  0  0  0  0  0
   -5.1234   25.1943    2.3590 C   0  0  0  0  0  0  0  0  0  0  0  0
   -4.1574   24.3537    3.1730 C   0  0  0  0  0  0  0  0  0  0  0  0
   -2.9922   25.1775    3.7117 C   0  0  0  0  0  0  0  0  0  0  0  0
   -6.0359   24.6541    1.3846 C   0  0  0  0  0  0  0  0  0  0  0  0
   -6.3838   25.1245    0.1263 C   0  0  0  0  0  0  0  0  0  0  0  0
   -7.3330   24.2989   -0.5435 C   0  0  0  0  0  0  0  0  0  0  0  0
   -7.6892   23.2102    0.2153 C   0  0  0  0  0  0  0  0  0  0  0  0
   -6.8826   23.1863    1.7188 S   0  0  0  0  0  0  0  0  0  0  0  0
   -1.9793   28.7208    6.9716 C   0  0  0  0  0  0  0  0  0  0  0  0
   -2.1460   29.3524    8.2174 C   0  0  0  0  0  0  0  0  0  0  0  0
   -1.0506   29.8740    8.9082 C   0  0  0  0  0  0  0  0  0  0  0  0
    0.2283   29.7649    8.3694 C   0  0  0  0  0  0  0  0  0  0  0  0
    0.4124   29.1355    7.1406 C   0  0  0  0  0  0  0  0  0  0  0  0
   -0.6820   28.6129    6.4473 C   0  0  0  0  0  0  0  0  0  0  0  0
   -5.3888   29.0479    6.8914 C   0  0  0  0  0  0  0  0  0  0  0  0
   -5.5194   29.6085    5.8111 O   0  0  0  0  0  0  0  0  0  0  0  0
   -4.3437   28.1961    7.1762 N   0  0  0  0  0  0  0  0  0  0  0  0
   -4.1585   27.9977    8.1512 H   0  0  0  0  0  0  0  0  0  0  0  0
   -5.6923   29.0207    9.3929 C   0  0  0  0  0  0  0  0  0  0  0  0
   -6.3651   29.1868    8.0423 C   0  0  0  0  0  0  0  0  0  0  0  0
 25 26  1  0  0  0
 26 21  1  0  0  0
 21 22  2  0  0  0
 21 23  1  0  0  0
 23  1  1  0  0  0
  1  2  1  0  0  0
  2  3  2  0  0  0
  2  4  1  0  0  0
  4  5  1  0  0  0
  5  6  1  0  0  0
  6  7  2  0  0  0
  7 10  1  0  0  0
 10 11  2  0  0  0
 11 12  1  0  0  0
 12 13  2  0  0  0
 13 14  1  0  0  0
  7  8  1  0  0  0
  8  9  1  0  0  0
  1 15  1  0  0  0
 15 16  2  0  0  0
 16 17  1  0  0  0
 17 18  2  0  0  0
 18 19  1  0  0  0
 19 20  2  0  0  0
  9  4  1  0  0  0
 20 15  1  0  0  0
 14 10  1  0  0  0
 23 24  1  0  0  0
M  END
> <minimizedAffinity>
-9.01004

$$$$
OCNT-2318429


 27 30  0  0  0  0  0  0  0  0999 V2000
   -4.6753   29.4377    5.5462 N   0  0  0  0  0  0  0  0  0  0  0  0
   -5.4708   28.3749    5.1662 C   0  0  0  0  0  0  0  0  0  0  0  0
   -6.4155   27.9100    5.7877 O   0  0  0  0  0  0  0  0  0  0  0  0
   -5.0689   27.8792    3.9342 N   0  0  0  0  0  0  0  0  0  0  0  0
   -4.1264   29.8496    4.8074 H   0  0  0  0  0  0  0  0  0  0  0  0
   -4.0881   27.9868    3.7220 H   0  0  0  0  0  0  0  0  0  0  0  0
   -5.7318   26.7511    3.3414 C   0  0  0  0  0  0  0  0  0  0  0  0
   -5.1856   25.3572    3.5393 C   0  0  0  0  0  0  0  0  0  0  0  0
   -6.0717   24.1218    3.4464 C   0  0  0  0  0  0  0  0  0  0  0  0
   -6.4763   24.0812    1.9912 C   0  0  0  0  0  0  0  0  0  0  0  0
   -7.2888   23.1434    1.3740 C   0  0  0  0  0  0  0  0  0  0  0  0
   -7.5565   23.3108    0.0205 C   0  0  0  0  0  0  0  0  0  0  0  0
   -8.3427   22.4233   -0.6031 F   0  0  0  0  0  0  0  0  0  0  0  0
   -7.0274   24.3843   -0.7034 C   0  0  0  0  0  0  0  0  0  0  0  0
   -6.2064   25.3229   -0.0727 C   0  0  0  0  0  0  0  0  0  0  0  0
   -5.9277   25.1674    1.2789 C   0  0  0  0  0  0  0  0  0  0  0  0
   -5.0984   26.0286    2.1772 C   0  0  0  0  0  0  0  0  0  0  0  0
   -3.4355   31.2271    8.5461 C   0  0  0  0  0  0  0  0  0  0  0  0
   -4.6322   31.5413    9.2005 C   0  0  0  0  0  0  0  0  0  0  0  0
   -5.8522   31.1559    8.6510 C   0  0  0  0  0  0  0  0  0  0  0  0
   -5.8922   30.4566    7.4417 C   0  0  0  0  0  0  0  0  0  0  0  0
   -4.7142   30.1412    6.7667 C   0  0  0  0  0  0  0  0  0  0  0  0
   -3.4895   30.5230    7.3300 C   0  0  0  0  0  0  0  0  0  0  0  0
   -1.0706   30.5364    8.9954 C   0  0  0  0  0  0  0  0  0  0  0  0
   -2.1084   31.6359    9.1418 C   0  0  0  0  0  0  0  0  0  0  0  0
   -1.6024   32.7605    8.5552 F   0  0  0  0  0  0  0  0  0  0  0  0
   -2.2095   31.9398   10.4690 F   0  0  0  0  0  0  0  0  0  0  0  0
 24 25  1  0  0  0
 25 26  1  0  0  0
 25 27  1  0  0  0
 25 18  1  0  0  0
 18 19  2  0  0  0
 19 20  1  0  0  0
 20 21  2  0  0  0
 21 22  1  0  0  0
 22  1  1  0  0  0
  1  2  1  0  0  0
  2  3  2  0  0  0
  2  4  1  0  0  0
  4  7  1  0  0  0
  7  8  1  0  0  0
  8  9  1  0  0  0
  9 10  1  0  0  0
 10 11  1  0  0  0
 11 12  2  0  0  0
 12 13  1  0  0  0
 12 14  1  0  0  0
 14 15  2  0  0  0
 15 16  1  0  0  0
 16 17  1  0  0  0
 22 23  2  0  0  0
 23 18  1  0  0  0
 17  7  1  0  0  0
 17  8  1  0  0  0
 16 10  2  0  0  0
  1  5  1  0  0  0
  4  6  1  0  0  0
M  END
> <minimizedAffinity>
-11.30330

$$$$
OCNT-2318445


 22 24  0  0  0  0  0  0  0  0999 V2000
   -7.6523   22.2083    3.7528 C   0  0  0  0  0  0  0  0  0  0  0  0
   -8.3903   21.4338    3.1588 O   0  0  0  0  0  0  0  0  0  0  0  0
   -6.9536   23.2523    3.1849 N   0  0  0  0  0  0  0  0  0  0  0  0
   -6.0775   24.1593    3.9350 C   0  0  0  0  0  0  0  0  0  0  0  0
   -5.4854   25.1883    2.9296 C   0  0  0  0  0  0  0  0  0  0  0  0
   -5.9000   26.6274    3.2891 C   0  0  0  0  0  0  0  0  0  0  0  0
   -5.1729   27.1323    4.5352 C   0  0  0  0  0  0  0  0  0  0  0  0
   -3.7241   27.0273    4.3814 N   0  0  0  0  0  0  0  0  0  0  0  0
   -3.2946   25.6542    4.1287 C   0  0  0  0  0  0  0  0  0  0  0  0
   -3.9495   25.0926    2.8670 C   0  0  0  0  0  0  0  0  0  0  0  0
   -6.1252   24.7310    1.6362 C   0  0  0  0  0  0  0  0  0  0  0  0
   -6.9535   23.6241    1.8342 C   0  0  0  0  0  0  0  0  0  0  0  0
   -7.6371   23.0463    0.7765 C   0  0  0  0  0  0  0  0  0  0  0  0
   -7.4820   23.5945   -0.4999 C   0  0  0  0  0  0  0  0  0  0  0  0
   -6.6523   24.7047   -0.7030 C   0  0  0  0  0  0  0  0  0  0  0  0
   -5.9676   25.2803    0.3680 C   0  0  0  0  0  0  0  0  0  0  0  0
   -3.2651   27.3794    5.2219 H   0  0  0  0  0  0  0  0  0  0  0  0
   -7.4147   22.1413    5.0939 O   0  0  0  0  0  0  0  0  0  0  0  0
   -9.6235   21.3675    5.8674 C   0  0  0  0  0  0  0  0  0  0  0  0
   -8.4760   22.3655    6.0572 C   0  0  0  0  0  0  0  0  0  0  0  0
   -7.8198   22.1018    7.4216 C   0  0  0  0  0  0  0  0  0  0  0  0
   -8.9639   23.8179    6.0237 C   0  0  0  0  0  0  0  0  0  0  0  0
 19 20  1  0  0  0
 20 21  1  0  0  0
 20 22  1  0  0  0
 20 18  1  0  0  0
 18  1  1  0  0  0
  1  2  2  0  0  0
  1  3  1  0  0  0
  3  4  1  0  0  0
  4  5  1  0  0  0
  5  6  1  0  0  0
  6  7  1  0  0  0
  7  8  1  0  0  0
  8  9  1  0  0  0
  9 10  1  0  0  0
  5 11  1  0  0  0
 11 12  1  0  0  0
 12 13  2  0  0  0
 13 14  1  0  0  0
 14 15  2  0  0  0
 15 16  1  0  0  0
 12  3  1  0  0  0
 10  5  1  0  0  0
 16 11  2  0  0  0
  8 17  1  0  0  0
M  END
> <minimizedAffinity>
-8.79495

$$$$
OCNT-2318446


 28 31  0  0  0  0  0  0  0  0999 V2000
   -5.6190   26.9916    3.8231 C   0  0  0  0  0  0  0  0  0  0  0  0
   -5.8478   27.9123    3.0452 O   0  0  0  0  0  0  0  0  0  0  0  0
   -5.3503   27.1883    5.1666 N   0  0  0  0  0  0  0  0  0  0  0  0
   -4.8419   26.4526    5.6427 H   0  0  0  0  0  0  0  0  0  0  0  0
   -7.1993   23.8240   -0.7032 C   0  0  0  0  0  0  0  0  0  0  0  0
   -6.5154   23.2492    0.4841 C   0  0  0  0  0  0  0  0  0  0  0  0
   -6.1662   21.9237    0.6764 C   0  0  0  0  0  0  0  0  0  0  0  0
   -5.5577   21.8102    1.8998 N   0  0  0  0  0  0  0  0  0  0  0  0
   -5.5034   23.0340    2.5055 C   0  0  0  0  0  0  0  0  0  0  0  0
   -4.9703   23.2585    3.7214 N   0  0  0  0  0  0  0  0  0  0  0  0
   -5.0489   24.5606    4.0941 C   0  0  0  0  0  0  0  0  0  0  0  0
   -5.5869   25.5949    3.3334 C   0  0  0  0  0  0  0  0  0  0  0  0
   -6.1406   25.2965    2.0835 C   0  0  0  0  0  0  0  0  0  0  0  0
   -6.0917   23.9602    1.6501 C   0  0  0  0  0  0  0  0  0  0  0  0
   -5.1990   20.9633    2.3155 H   0  0  0  0  0  0  0  0  0  0  0  0
   -5.1681   28.5364    5.6862 C   0  0  0  0  0  0  0  0  0  0  0  0
   -4.3165   28.5511    6.9515 C   0  0  0  0  0  0  0  0  0  0  0  0
   -4.6092   29.9351    7.5317 C   0  0  0  0  0  0  0  0  0  0  0  0
   -6.1250   30.0793    7.3495 C   0  0  0  0  0  0  0  0  0  0  0  0
   -6.4786   29.2301    6.1239 C   0  0  0  0  0  0  0  0  0  0  0  0
   -6.9854   30.0596    5.0869 O   0  0  0  0  0  0  0  0  0  0  0  0
   -7.1141   29.4622    4.3143 H   0  0  0  0  0  0  0  0  0  0  0  0
   -4.1783   30.1119    8.9870 C   0  0  0  0  0  0  0  0  0  0  0  0
   -2.8282   30.6200    9.1191 N   0  0  0  0  0  0  0  0  0  0  0  0
   -1.6790   29.9687    8.7698 C   0  0  0  0  0  0  0  0  0  0  0  0
   -0.6671   30.8451    9.0863 C   0  0  0  0  0  0  0  0  0  0  0  0
   -1.1745   32.0012    9.6206 N   0  0  0  0  0  0  0  0  0  0  0  0
   -2.4776   31.8335    9.6371 C   0  0  0  0  0  0  0  0  0  0  0  0
  5  6  1  0  0  0
  6  7  2  0  0  0
  7  8  1  0  0  0
  8  9  1  0  0  0
  9 10  1  0  0  0
 10 11  2  0  0  0
 11 12  1  0  0  0
 12  1  1  0  0  0
  1  2  2  0  0  0
  1  3  1  0  0  0
  3 16  1  0  0  0
 16 17  1  0  0  0
 17 18  1  0  0  0
 18 23  1  0  0  0
 23 24  1  0  0  0
 24 25  1  0  0  0
 25 26  2  0  0  0
 26 27  1  0  0  0
 27 28  2  0  0  0
 18 19  1  0  0  0
 19 20  1  0  0  0
 20 21  1  0  0  0
 12 13  2  0  0  0
 13 14  1  0  0  0
 14  6  1  0  0  0
 14  9  2  0  0  0
 20 16  1  0  0  0
 28 24  1  0  0  0
  8 15  1  0  0  0
  3  4  1  0  0  0
 21 22  1  0  0  0
M  END
> <minimizedAffinity>
-8.95289

$$$$
OCNT-2318453


 26 28  0  0  0  0  0  0  0  0999 V2000
   -6.3182   27.8969    6.0020 O   0  0  0  0  0  0  0  0  0  0  0  0
   -5.1626   27.9426    5.5890 C   0  0  0  0  0  0  0  0  0  0  0  0
   -4.7990   27.4922    4.3465 N   0  0  0  0  0  0  0  0  0  0  0  0
   -3.8488   27.6905    4.0292 H   0  0  0  0  0  0  0  0  0  0  0  0
   -4.0542   28.5012    6.4143 C   0  0  0  0  0  0  0  0  0  0  0  0
   -4.3320   29.5004    7.2688 C   0  0  0  0  0  0  0  0  0  0  0  0
   -3.4255   30.1091    8.0977 N   0  0  0  0  0  0  0  0  0  0  0  0
   -2.0732   29.7509    8.0696 C   0  0  0  0  0  0  0  0  0  0  0  0
   -1.1426   30.3776    8.9020 C   0  0  0  0  0  0  0  0  0  0  0  0
    0.1992   29.9851    8.8811 C   0  0  0  0  0  0  0  0  0  0  0  0
    0.6200   28.9579    8.0352 C   0  0  0  0  0  0  0  0  0  0  0  0
   -0.3001   28.3156    7.2077 C   0  0  0  0  0  0  0  0  0  0  0  0
   -1.6423   28.7100    7.2300 C   0  0  0  0  0  0  0  0  0  0  0  0
   -2.6381   28.0344    6.3556 C   0  0  0  0  0  0  0  0  0  0  0  0
   -2.2932   27.1260    5.6021 O   0  0  0  0  0  0  0  0  0  0  0  0
   -3.7148   30.9271    8.6221 H   0  0  0  0  0  0  0  0  0  0  0  0
   -5.7830   27.0840    3.3723 C   0  0  0  0  0  0  0  0  0  0  0  0
   -5.7224   25.6044    3.1151 C   0  0  0  0  0  0  0  0  0  0  0  0
   -5.5541   24.6970    4.1725 C   0  0  0  0  0  0  0  0  0  0  0  0
   -5.5132   23.3271    3.9190 C   0  0  0  0  0  0  0  0  0  0  0  0
   -5.3485   22.4870    4.9510 F   0  0  0  0  0  0  0  0  0  0  0  0
   -5.6447   22.8408    2.6191 C   0  0  0  0  0  0  0  0  0  0  0  0
   -5.5963   21.1493    2.3048 Cl  0  0  0  0  0  0  0  0  0  0  0  0
   -5.8213   23.7287    1.5613 C   0  0  0  0  0  0  0  0  0  0  0  0
   -5.8614   25.0972    1.8186 C   0  0  0  0  0  0  0  0  0  0  0  0
   -6.0391   25.9360    0.7886 F   0  0  0  0  0  0  0  0  0  0  0  0
  1  2  2  0  0  0
  2  3  1  0  0  0
  3 17  1  0  0  0
 17 18  1  0  0  0
 18 19  2  0  0  0
 19 20  1  0  0  0
 20 21  1  0  0  0
 20 22  2  0  0  0
 22 23  1  0  0  0
 22 24  1  0  0  0
 24 25  2  0  0  0
 25 26  1  0  0  0
  2  5  1  0  0  0
  5  6  2  0  0  0
  6  7  1  0  0  0
  7  8  1  0  0  0
  8  9  2  0  0  0
  9 10  1  0  0  0
 10 11  2  0  0  0
 11 12  1  0  0  0
 12 13  2  0  0  0
 13 14  1  0  0  0
 14 15  2  0  0  0
 25 18  1  0  0  0
 14  5  1  0  0  0
 13  8  1  0  0  0
  3  4  1  0  0  0
  7 16  1  0  0  0
M  END
> <minimizedAffinity>
-9.53405

$$$$
OCNT-2318479


 26 29  0  0  0  0  0  0  0  0999 V2000
   -6.6599   24.3770    4.5583 N   0  0  0  0  0  0  0  0  0  0  0  0
   -6.0321   25.5124    4.9684 N   0  0  0  0  0  0  0  0  0  0  0  0
   -5.2233   25.8011    3.9459 C   0  0  0  0  0  0  0  0  0  0  0  0
   -5.3700   24.9853    2.8644 N   0  0  0  0  0  0  0  0  0  0  0  0
   -6.3030   24.1262    3.2351 C   0  0  0  0  0  0  0  0  0  0  0  0
   -5.4313   22.3534    6.4251 C   0  0  0  0  0  0  0  0  0  0  0  0
   -6.9057   22.6474    6.3252 C   0  0  0  0  0  0  0  0  0  0  0  0
   -7.7675   21.9043    7.1551 C   0  0  0  0  0  0  0  0  0  0  0  0
   -9.1375   22.1350    7.1455 C   0  0  0  0  0  0  0  0  0  0  0  0
   -9.9341   21.4184    7.9486 F   0  0  0  0  0  0  0  0  0  0  0  0
   -9.6891   23.0914    6.3101 C   0  0  0  0  0  0  0  0  0  0  0  0
   -8.8576   23.8314    5.4675 C   0  0  0  0  0  0  0  0  0  0  0  0
   -7.4645   23.6288    5.4682 C   0  0  0  0  0  0  0  0  0  0  0  0
   -6.9395   23.1288    2.3174 C   0  0  0  0  0  0  0  0  0  0  0  0
   -7.3145   23.7592    0.9666 C   0  0  0  0  0  0  0  0  0  0  0  0
   -7.2128   22.6015   -0.0120 C   0  0  0  0  0  0  0  0  0  0  0  0
   -5.9423   21.8940    0.4342 C   0  0  0  0  0  0  0  0  0  0  0  0
   -5.9717   21.9786    1.9619 C   0  0  0  0  0  0  0  0  0  0  0  0
   -6.4794   20.7572    2.5023 O   0  0  0  0  0  0  0  0  0  0  0  0
   -5.8744   20.0465    2.2227 H   0  0  0  0  0  0  0  0  0  0  0  0
   -4.2830   26.9499    3.9631 C   0  0  0  0  0  0  0  0  0  0  0  0
   -3.0047   26.5654    4.5284 N   0  0  0  0  0  0  0  0  0  0  0  0
   -2.5674   26.7385    5.8078 C   0  0  0  0  0  0  0  0  0  0  0  0
   -1.3216   26.3348    5.9070 N   0  0  0  0  0  0  0  0  0  0  0  0
   -1.0267   25.9352    4.6356 C   0  0  0  0  0  0  0  0  0  0  0  0
   -2.0152   26.0749    3.7487 N   0  0  0  0  0  0  0  0  0  0  0  0
  6  7  1  0  0  0
  7  8  1  0  0  0
  8  9  2  0  0  0
  9 10  1  0  0  0
  9 11  1  0  0  0
 11 12  2  0  0  0
 12 13  1  0  0  0
 13  1  1  0  0  0
  1  2  1  0  0  0
  2  3  2  0  0  0
  3 21  1  0  0  0
 21 22  1  0  0  0
 22 23  1  0  0  0
 23 24  2  0  0  0
 24 25  1  0  0  0
 25 26  2  0  0  0
  3  4  1  0  0  0
  4  5  2  0  0  0
  5 14  1  0  0  0
 14 15  1  0  0  0
 15 16  1  0  0  0
 16 17  1  0  0  0
 17 18  1  0  0  0
 18 19  1  0  0  0
 13  7  2  0  0  0
  5  1  1  0  0  0
 18 14  1  0  0  0
 26 22  1  0  0  0
 19 20  1  0  0  0
M  END
> <minimizedAffinity>
-8.98854

$$$$
OCNT-2318486


 29 31  0  0  0  0  0  0  0  0999 V2000
   -1.1730   27.1889    5.9261 C   0  0  0  0  0  0  0  0  0  0  0  0
   -0.1351   26.5276    5.2670 C   0  0  0  0  0  0  0  0  0  0  0  0
   -0.4000   25.6779    4.1854 C   0  0  0  0  0  0  0  0  0  0  0  0
   -1.7069   25.4877    3.7442 C   0  0  0  0  0  0  0  0  0  0  0  0
   -2.7520   26.1554    4.3889 C   0  0  0  0  0  0  0  0  0  0  0  0
   -2.4864   26.9898    5.4850 C   0  0  0  0  0  0  0  0  0  0  0  0
    0.7506   29.4204    6.2998 O   0  0  0  0  0  0  0  0  0  0  0  0
   -0.0617   29.0728    7.1554 C   0  0  0  0  0  0  0  0  0  0  0  0
   -0.9924   28.0518    7.0298 N   0  0  0  0  0  0  0  0  0  0  0  0
   -1.6310   27.9098    7.8058 H   0  0  0  0  0  0  0  0  0  0  0  0
   -0.1447   29.7900    8.4957 C   0  0  0  0  0  0  0  0  0  0  0  0
   -1.2488   30.8242    8.5469 C   0  0  0  0  0  0  0  0  0  0  0  0
   -1.8638   31.2575    7.3606 C   0  0  0  0  0  0  0  0  0  0  0  0
   -2.8872   32.2061    7.3944 C   0  0  0  0  0  0  0  0  0  0  0  0
   -3.2985   32.7315    8.6175 C   0  0  0  0  0  0  0  0  0  0  0  0
   -4.6881   34.0148    8.6663 Br  0  0  0  0  0  0  0  0  0  0  0  0
   -2.6920   32.3197    9.8046 C   0  0  0  0  0  0  0  0  0  0  0  0
   -1.6664   31.3714    9.7695 C   0  0  0  0  0  0  0  0  0  0  0  0
   -4.1659   25.9816    3.9664 C   0  0  0  0  0  0  0  0  0  0  0  0
   -5.0713   26.1001    4.7837 O   0  0  0  0  0  0  0  0  0  0  0  0
   -4.3671   25.7235    2.6279 N   0  0  0  0  0  0  0  0  0  0  0  0
   -3.6126   25.9279    1.9819 H   0  0  0  0  0  0  0  0  0  0  0  0
   -5.7025   25.7513    2.0902 C   0  0  0  0  0  0  0  0  0  0  0  0
   -5.9452   24.4377    1.4445 C   0  0  0  0  0  0  0  0  0  0  0  0
   -5.3896   23.1964    1.6896 C   0  0  0  0  0  0  0  0  0  0  0  0
   -5.9804   22.2804    0.7840 C   0  0  0  0  0  0  0  0  0  0  0  0
   -6.8631   22.9883   -0.0005 C   0  0  0  0  0  0  0  0  0  0  0  0
   -6.8378   24.2951    0.4073 N   0  0  0  0  0  0  0  0  0  0  0  0
   -7.3809   25.0504    0.0040 H   0  0  0  0  0  0  0  0  0  0  0  0
  7  8  2  0  0  0
  8 11  1  0  0  0
 11 12  1  0  0  0
 12 13  1  0  0  0
 13 14  2  0  0  0
 14 15  1  0  0  0
 15 16  1  0  0  0
 15 17  2  0  0  0
 17 18  1  0  0  0
  8  9  1  0  0  0
  9  1  1  0  0  0
  1  2  2  0  0  0
  2  3  1  0  0  0
  3  4  2  0  0  0
  4  5  1  0  0  0
  5 19  1  0  0  0
 19 20  2  0  0  0
 19 21  1  0  0  0
 21 23  1  0  0  0
 23 24  1  0  0  0
 24 25  2  0  0  0
 25 26  1  0  0  0
 26 27  2  0  0  0
 27 28  1  0  0  0
  5  6  2  0  0  0
 18 12  2  0  0  0
  6  1  1  0  0  0
 28 24  1  0  0  0
  9 10  1  0  0  0
 21 22  1  0  0  0
 28 29  1  0  0  0
M  END
> <minimizedAffinity>
-9.99171

$$$$
OCNT-2318494


 25 27  0  0  0  0  0  0  0  0999 V2000
    0.5427   29.3880    8.9047 C   0  0  0  0  0  0  0  0  0  0  0  0
   -0.4923   28.7299    8.0431 C   0  0  0  0  0  0  0  0  0  0  0  0
   -1.8380   28.9754    8.2592 C   0  0  0  0  0  0  0  0  0  0  0  0
   -2.7844   28.3260    7.4675 C   0  0  0  0  0  0  0  0  0  0  0  0
   -4.1371   28.6912    7.6567 N   0  0  0  0  0  0  0  0  0  0  0  0
   -2.3470   27.5063    6.3985 C   0  0  0  0  0  0  0  0  0  0  0  0
   -3.2125   26.8645    5.4736 C   0  0  0  0  0  0  0  0  0  0  0  0
   -2.7218   26.0495    4.4454 C   0  0  0  0  0  0  0  0  0  0  0  0
   -1.3483   25.8803    4.3345 C   0  0  0  0  0  0  0  0  0  0  0  0
   -0.4871   26.5155    5.2364 C   0  0  0  0  0  0  0  0  0  0  0  0
   -0.9549   27.3251    6.2594 C   0  0  0  0  0  0  0  0  0  0  0  0
   -0.0537   27.9117    7.0628 N   0  0  0  0  0  0  0  0  0  0  0  0
   -4.7947   27.9925    7.3306 H   0  0  0  0  0  0  0  0  0  0  0  0
   -4.3307   29.5899    7.2181 H   0  0  0  0  0  0  0  0  0  0  0  0
   -3.6639   25.4586    3.5767 N   0  0  0  0  0  0  0  0  0  0  0  0
   -4.7311   26.0808    2.9532 C   0  0  0  0  0  0  0  0  0  0  0  0
   -5.0138   27.2716    2.9889 O   0  0  0  0  0  0  0  0  0  0  0  0
   -3.4924   24.4924    3.3330 H   0  0  0  0  0  0  0  0  0  0  0  0
   -5.5832   25.1819    2.1242 C   0  0  0  0  0  0  0  0  0  0  0  0
   -6.2117   24.0531    2.6685 C   0  0  0  0  0  0  0  0  0  0  0  0
   -7.0073   23.2390    1.8562 C   0  0  0  0  0  0  0  0  0  0  0  0
   -7.1804   23.5571    0.5088 C   0  0  0  0  0  0  0  0  0  0  0  0
   -8.1594   22.5511   -0.4853 Cl  0  0  0  0  0  0  0  0  0  0  0  0
   -6.5727   24.6876   -0.0348 C   0  0  0  0  0  0  0  0  0  0  0  0
   -5.7785   25.5040    0.7743 C   0  0  0  0  0  0  0  0  0  0  0  0
  1  2  1  0  0  0
  2  3  1  0  0  0
  3  4  2  0  0  0
  4  5  1  0  0  0
  4  6  1  0  0  0
  6  7  2  0  0  0
  7  8  1  0  0  0
  8 15  1  0  0  0
 15 16  1  0  0  0
 16 17  2  0  0  0
 16 19  1  0  0  0
 19 20  1  0  0  0
 20 21  2  0  0  0
 21 22  1  0  0  0
 22 23  1  0  0  0
 22 24  2  0  0  0
 24 25  1  0  0  0
  8  9  2  0  0  0
  9 10  1  0  0  0
 10 11  2  0  0  0
 11 12  1  0  0  0
 12  2  2  0  0  0
 11  6  1  0  0  0
 25 19  2  0  0  0
  5 13  1  0  0  0
  5 14  1  0  0  0
 15 18  1  0  0  0
M  END
> <minimizedAffinity>
-10.07331

$$$$
OCNT-2318495


 26 29  0  0  0  0  0  0  0  0999 V2000
   -4.5227   28.0920    6.3863 C   0  0  0  0  0  0  0  0  0  0  0  0
   -4.9306   29.1888    7.1248 C   0  0  0  0  0  0  0  0  0  0  0  0
   -6.1508   29.5462    6.6462 N   0  0  0  0  0  0  0  0  0  0  0  0
   -6.9730   30.6437    7.0937 C   0  0  0  0  0  0  0  0  0  0  0  0
   -6.5897   28.7579    5.6565 N   0  0  0  0  0  0  0  0  0  0  0  0
   -5.6244   27.8372    5.5005 C   0  0  0  0  0  0  0  0  0  0  0  0
   -5.7699   26.7934    4.4861 C   0  0  0  0  0  0  0  0  0  0  0  0
   -6.0827   25.4745    4.8351 C   0  0  0  0  0  0  0  0  0  0  0  0
   -6.1538   24.4793    3.8542 C   0  0  0  0  0  0  0  0  0  0  0  0
   -5.9304   24.7993    2.5118 C   0  0  0  0  0  0  0  0  0  0  0  0
   -5.6598   26.1221    2.1503 C   0  0  0  0  0  0  0  0  0  0  0  0
   -5.5831   27.1131    3.1332 C   0  0  0  0  0  0  0  0  0  0  0  0
   -5.9747   23.7753    1.5098 C   0  0  0  0  0  0  0  0  0  0  0  0
   -6.0035   22.9437    0.7005 N   0  0  0  0  0  0  0  0  0  0  0  0
   -3.2416   27.3361    6.5463 C   0  0  0  0  0  0  0  0  0  0  0  0
    0.6903   29.3873    6.1284 C   0  0  0  0  0  0  0  0  0  0  0  0
    0.0158   28.2919    6.9425 C   0  0  0  0  0  0  0  0  0  0  0  0
   -0.7934   27.2432    6.1280 C   0  0  0  0  0  0  0  0  0  0  0  0
   -1.9866   28.0699    6.3849 N   0  0  0  0  0  0  0  0  0  0  0  0
   -1.3606   28.5827    7.6297 C   0  0  0  0  0  0  0  0  0  0  0  0
   -1.7796   30.0724    7.9818 C   0  0  0  0  0  0  0  0  0  0  0  0
   -2.0895   31.0589    7.0224 C   0  0  0  0  0  0  0  0  0  0  0  0
   -2.4832   32.3531    7.3792 C   0  0  0  0  0  0  0  0  0  0  0  0
   -2.5754   32.7076    8.7194 C   0  0  0  0  0  0  0  0  0  0  0  0
   -2.2659   31.7717    9.6982 C   0  0  0  0  0  0  0  0  0  0  0  0
   -1.8733   30.4810    9.3301 C   0  0  0  0  0  0  0  0  0  0  0  0
 16 17  1  0  0  0
 17 18  1  0  0  0
 18 19  1  0  0  0
 19 15  1  0  0  0
 15  1  1  0  0  0
  1  2  2  0  0  0
  2  3  1  0  0  0
  3  4  1  0  0  0
  3  5  1  0  0  0
  5  6  2  0  0  0
  6  7  1  0  0  0
  7  8  1  0  0  0
  8  9  2  0  0  0
  9 10  1  0  0  0
 10 13  1  0  0  0
 13 14  3  0  0  0
 10 11  2  0  0  0
 11 12  1  0  0  0
 19 20  1  0  0  0
 20 21  1  0  0  0
 21 22  2  0  0  0
 22 23  1  0  0  0
 23 24  2  0  0  0
 24 25  1  0  0  0
 25 26  2  0  0  0
 20 17  1  0  0  0
 26 21  1  0  0  0
  6  1  1  0  0  0
 12  7  2  0  0  0
M  END
> <minimizedAffinity>
-9.18919

$$$$
OCNT-2318499


 27 29  0  0  0  0  0  0  0  0999 V2000
   -6.2766   29.6446    7.8043 N   0  0  0  0  0  0  0  0  0  0  0  0
   -7.0640   29.1361    8.2055 H   0  0  0  0  0  0  0  0  0  0  0  0
   -8.0825   30.6766    6.4195 C   0  0  0  0  0  0  0  0  0  0  0  0
   -6.6588   30.0954    6.4561 C   0  0  0  0  0  0  0  0  0  0  0  0
   -6.3475   29.0654    5.3724 C   0  0  0  0  0  0  0  0  0  0  0  0
   -6.2946   27.7028    5.7189 C   0  0  0  0  0  0  0  0  0  0  0  0
   -6.0038   26.7246    4.7597 C   0  0  0  0  0  0  0  0  0  0  0  0
   -5.7976   27.0988    3.4308 C   0  0  0  0  0  0  0  0  0  0  0  0
   -5.8448   28.4467    3.0660 C   0  0  0  0  0  0  0  0  0  0  0  0
   -6.1201   29.4240    4.0324 C   0  0  0  0  0  0  0  0  0  0  0  0
   -5.4385   26.0663    2.4336 C   0  0  0  0  0  0  0  0  0  0  0  0
   -6.2036   25.9009    1.4862 O   0  0  0  0  0  0  0  0  0  0  0  0
   -4.2780   25.3151    2.6258 N   0  0  0  0  0  0  0  0  0  0  0  0
   -3.1357   25.7633    3.4136 C   0  0  0  0  0  0  0  0  0  0  0  0
   -4.0292   24.2224    1.7033 C   0  0  0  0  0  0  0  0  0  0  0  0
   -5.9077   30.7100    8.7304 C   0  0  0  0  0  0  0  0  0  0  0  0
   -4.4266   30.5936    8.9674 C   0  0  0  0  0  0  0  0  0  0  0  0
   -3.4513   30.8978    7.8417 C   0  0  0  0  0  0  0  0  0  0  0  0
   -3.5102   31.8041    9.0740 C   0  0  0  0  0  0  0  0  0  0  0  0
   -2.4345   31.7342   10.1375 C   0  0  0  0  0  0  0  0  0  0  0  0
   -4.0518   33.1992    8.8768 C   0  0  0  0  0  0  0  0  0  0  0  0
   -2.2660   29.9953    7.5759 C   0  0  0  0  0  0  0  0  0  0  0  0
   -1.1148   30.4826    6.9217 C   0  0  0  0  0  0  0  0  0  0  0  0
   -0.0278   29.6522    6.6403 C   0  0  0  0  0  0  0  0  0  0  0  0
   -0.0767   28.3048    6.9931 C   0  0  0  0  0  0  0  0  0  0  0  0
   -1.2079   27.7928    7.6260 C   0  0  0  0  0  0  0  0  0  0  0  0
   -2.2917   28.6301    7.9086 C   0  0  0  0  0  0  0  0  0  0  0  0
  3  4  1  0  0  0
  4  1  1  0  0  0
  1 16  1  0  0  0
 16 17  1  0  0  0
 17 18  1  0  0  0
 18 22  1  0  0  0
 22 23  2  0  0  0
 23 24  1  0  0  0
 24 25  2  0  0  0
 25 26  1  0  0  0
 26 27  2  0  0  0
 18 19  1  0  0  0
 19 20  1  0  0  0
 19 21  1  0  0  0
  4  5  1  0  0  0
  5  6  1  0  0  0
  6  7  2  0  0  0
  7  8  1  0  0  0
  8 11  1  0  0  0
 11 12  2  0  0  0
 11 13  1  0  0  0
 13 14  1  0  0  0
 13 15  1  0  0  0
  8  9  2  0  0  0
  9 10  1  0  0  0
 19 17  1  0  0  0
 10  5  2  0  0  0
 27 22  1  0  0  0
  1  2  1  0  0  0
M  END
> <minimizedAffinity>
-9.44642

$$$$
OCNT-2318507


 25 27  0  0  0  0  0  0  0  0999 V2000
   -5.9793   28.5679    6.8122 C   0  0  0  0  0  0  0  0  0  0  0  0
   -2.4817   29.0852    7.8579 C   0  0  0  0  0  0  0  0  0  0  0  0
   -3.2628   29.9936    8.8179 C   0  0  0  0  0  0  0  0  0  0  0  0
   -4.7142   29.5859    8.6380 C   0  0  0  0  0  0  0  0  0  0  0  0
   -4.7512   29.2759    7.2069 N   0  0  0  0  0  0  0  0  0  0  0  0
   -3.5602   28.4562    6.9644 C   0  0  0  0  0  0  0  0  0  0  0  0
   -1.4412   29.8811    7.0738 C   0  0  0  0  0  0  0  0  0  0  0  0
   -0.1338   27.5169    7.0375 N   0  0  0  0  0  0  0  0  0  0  0  0
    0.1969   29.1569    7.1451 S   0  0  0  0  0  0  0  0  0  0  0  0
    0.9460   29.4766    5.9535 O   0  0  0  0  0  0  0  0  0  0  0  0
    0.7438   29.3437    8.4683 O   0  0  0  0  0  0  0  0  0  0  0  0
    0.3178   27.1226    6.2100 H   0  0  0  0  0  0  0  0  0  0  0  0
    0.1412   27.0513    7.9050 H   0  0  0  0  0  0  0  0  0  0  0  0
   -5.9200   28.1691    5.3654 C   0  0  0  0  0  0  0  0  0  0  0  0
   -5.7198   26.8923    5.0109 N   0  0  0  0  0  0  0  0  0  0  0  0
   -5.7326   26.8943    3.6523 N   0  0  0  0  0  0  0  0  0  0  0  0
   -5.9283   28.1649    3.1570 C   0  0  0  0  0  0  0  0  0  0  0  0
   -6.0532   29.0047    4.2366 C   0  0  0  0  0  0  0  0  0  0  0  0
   -5.5554   25.6855    2.9218 C   0  0  0  0  0  0  0  0  0  0  0  0
   -5.8335   25.6631    1.5434 C   0  0  0  0  0  0  0  0  0  0  0  0
   -5.6674   24.4878    0.8048 C   0  0  0  0  0  0  0  0  0  0  0  0
   -5.2229   23.3291    1.4360 C   0  0  0  0  0  0  0  0  0  0  0  0
   -4.9486   23.3554    2.7985 C   0  0  0  0  0  0  0  0  0  0  0  0
   -4.5210   22.2391    3.4034 F   0  0  0  0  0  0  0  0  0  0  0  0
   -5.1087   24.5169    3.5499 C   0  0  0  0  0  0  0  0  0  0  0  0
  8  9  1  0  0  0
  9 10  2  0  0  0
  9 11  2  0  0  0
  9  7  1  0  0  0
  7  2  1  0  0  0
  2  3  1  0  0  0
  3  4  1  0  0  0
  4  5  1  0  0  0
  5  1  1  0  0  0
  1 14  1  0  0  0
 14 15  2  0  0  0
 15 16  1  0  0  0
 16 19  1  0  0  0
 19 20  2  0  0  0
 20 21  1  0  0  0
 21 22  2  0  0  0
 22 23  1  0  0  0
 23 24  1  0  0  0
 23 25  2  0  0  0
 16 17  1  0  0  0
 17 18  2  0  0  0
  5  6  1  0  0  0
  6  2  1  0  0  0
 18 14  1  0  0  0
 25 19  1  0  0  0
  8 12  1  0  0  0
  8 13  1  0  0  0
M  END
> <minimizedAffinity>
-8.48477

$$$$
OCNT-2318516


 28 31  0  0  0  0  0  0  0  0999 V2000
   -4.3236   30.1499    6.2837 O   0  0  0  0  0  0  0  0  0  0  0  0
   -3.9413   29.2236    6.9966 C   0  0  0  0  0  0  0  0  0  0  0  0
   -3.7782   27.9018    6.6122 N   0  0  0  0  0  0  0  0  0  0  0  0
   -3.4761   27.2172    7.3010 H   0  0  0  0  0  0  0  0  0  0  0  0
   -3.6315   29.4256    8.4844 C   0  0  0  0  0  0  0  0  0  0  0  0
   -4.4678   30.5873    9.1060 C   0  0  0  0  0  0  0  0  0  0  0  0
   -3.8329   31.9916    8.9383 C   0  0  0  0  0  0  0  0  0  0  0  0
   -2.4230   32.0744    9.5591 C   0  0  0  0  0  0  0  0  0  0  0  0
   -1.6565   30.8684    9.1531 C   0  0  0  0  0  0  0  0  0  0  0  0
   -2.1754   29.6820    8.6769 C   0  0  0  0  0  0  0  0  0  0  0  0
   -1.1673   28.7899    8.3865 N   0  0  0  0  0  0  0  0  0  0  0  0
   -0.0505   29.4421    8.6437 C   0  0  0  0  0  0  0  0  0  0  0  0
   -0.2972   30.7011    9.1471 N   0  0  0  0  0  0  0  0  0  0  0  0
    0.4030   31.3837    9.4169 H   0  0  0  0  0  0  0  0  0  0  0  0
   -4.0407   27.3531    5.3867 C   0  0  0  0  0  0  0  0  0  0  0  0
   -5.2029   27.5202    4.7980 N   0  0  0  0  0  0  0  0  0  0  0  0
   -5.1863   26.8966    3.5658 C   0  0  0  0  0  0  0  0  0  0  0  0
   -4.0255   26.2181    3.2514 C   0  0  0  0  0  0  0  0  0  0  0  0
   -2.9136   26.3928    4.5447 S   0  0  0  0  0  0  0  0  0  0  0  0
   -3.6874   25.4206    2.0344 C   0  0  0  0  0  0  0  0  0  0  0  0
   -4.8759   24.7000    1.4352 C   0  0  0  0  0  0  0  0  0  0  0  0
   -5.6745   25.3180    0.4632 C   0  0  0  0  0  0  0  0  0  0  0  0
   -6.7459   24.6406   -0.1182 C   0  0  0  0  0  0  0  0  0  0  0  0
   -7.0172   23.3296    0.2636 C   0  0  0  0  0  0  0  0  0  0  0  0
   -8.3199   22.4704   -0.4843 Cl  0  0  0  0  0  0  0  0  0  0  0  0
   -6.2466   22.7021    1.2354 C   0  0  0  0  0  0  0  0  0  0  0  0
   -5.1906   23.3863    1.8216 C   0  0  0  0  0  0  0  0  0  0  0  0
   -4.4705   22.7707    2.7759 F   0  0  0  0  0  0  0  0  0  0  0  0
  1  2  2  0  0  0
  2  3  1  0  0  0
  3 15  1  0  0  0
 15 16  2  0  0  0
 16 17  1  0  0  0
 17 18  2  0  0  0
 18 20  1  0  0  0
 20 21  1  0  0  0
 21 22  1  0  0  0
 22 23  2  0  0  0
 23 24  1  0  0  0
 24 25  1  0  0  0
 24 26  2  0  0  0
 26 27  1  0  0  0
 27 28  1  0  0  0
 18 19  1  0  0  0
  2  5  1  0  0  0
  5  6  1  0  0  0
  6  7  1  0  0  0
  7  8  1  0  0  0
  8  9  1  0  0  0
  9 10  2  0  0  0
 10 11  1  0  0  0
 11 12  2  0  0  0
 12 13  1  0  0  0
 19 15  1  0  0  0
 10  5  1  0  0  0
 27 21  2  0  0  0
 13  9  1  0  0  0
  3  4  1  0  0  0
 13 14  1  0  0  0
M  END
> <minimizedAffinity>
-10.26728

$$$$
OCNT-2318523


 24 26  0  0  0  0  0  0  0  0999 V2000
   -5.4020   29.8078    7.1668 N   0  0  0  0  0  0  0  0  0  0  0  0
   -5.8044   28.6600    6.4597 C   0  0  0  0  0  0  0  0  0  0  0  0
   -6.8143   28.0185    6.7728 O   0  0  0  0  0  0  0  0  0  0  0  0
   -4.9258   28.1961    5.2755 C   0  0  0  0  0  0  0  0  0  0  0  0
   -4.8553   26.6457    5.2065 C   0  0  0  0  0  0  0  0  0  0  0  0
   -4.3724   26.1199    3.9105 N   0  0  0  0  0  0  0  0  0  0  0  0
   -2.9509   26.4011    3.7189 C   0  0  0  0  0  0  0  0  0  0  0  0
   -5.1841   26.6898    2.8094 C   0  0  0  0  0  0  0  0  0  0  0  0
   -6.0890   27.8676    3.2238 C   0  0  0  0  0  0  0  0  0  0  0  0
   -5.3773   28.7962    4.0455 O   0  0  0  0  0  0  0  0  0  0  0  0
   -6.3339   30.3711    8.1351 C   0  0  0  0  0  0  0  0  0  0  0  0
   -6.8515   29.5899    9.3178 C   0  0  0  0  0  0  0  0  0  0  0  0
   -5.9140   30.7310    9.5405 C   0  0  0  0  0  0  0  0  0  0  0  0
   -4.3908   30.7506    6.6431 C   0  0  0  0  0  0  0  0  0  0  0  0
   -1.1796   29.9126    8.5110 C   0  0  0  0  0  0  0  0  0  0  0  0
   -0.9261   31.1113    9.1752 C   0  0  0  0  0  0  0  0  0  0  0  0
   -1.7822   32.2061    9.0306 C   0  0  0  0  0  0  0  0  0  0  0  0
   -2.9136   32.1176    8.2161 C   0  0  0  0  0  0  0  0  0  0  0  0
   -3.1792   30.9137    7.5375 C   0  0  0  0  0  0  0  0  0  0  0  0
   -2.2989   29.8209    7.6866 C   0  0  0  0  0  0  0  0  0  0  0  0
    1.0630   29.1404    8.3327 C   0  0  0  0  0  0  0  0  0  0  0  0
   -0.2777   28.9183    8.7624 O   0  0  0  0  0  0  0  0  0  0  0  0
   -3.8179   33.1302    8.0304 O   0  0  0  0  0  0  0  0  0  0  0  0
   -4.3444   33.7629    9.1897 C   0  0  0  0  0  0  0  0  0  0  0  0
 21 22  1  0  0  0
 22 15  1  0  0  0
 15 16  1  0  0  0
 16 17  2  0  0  0
 17 18  1  0  0  0
 18 23  1  0  0  0
 23 24  1  0  0  0
 18 19  2  0  0  0
 19 14  1  0  0  0
 14  1  1  0  0  0
  1  2  1  0  0  0
  2  3  2  0  0  0
  2  4  1  0  0  0
  4  5  1  0  0  0
  5  6  1  0  0  0
  6  7  1  0  0  0
  6  8  1  0  0  0
  8  9  1  0  0  0
  9 10  1  0  0  0
  1 11  1  0  0  0
 11 12  1  0  0  0
 12 13  1  0  0  0
 19 20  1  0  0  0
 20 15  2  0  0  0
 10  4  1  0  0  0
 13 11  1  0  0  0
M  END
> <minimizedAffinity>
-7.21092

$$$$
OCNT-2318531


 26 29  0  0  0  0  0  0  0  0999 V2000
   -5.3892   29.9463    7.5080 N   0  0  0  0  0  0  0  0  0  0  0  0
   -6.3036   30.0173    7.9538 H   0  0  0  0  0  0  0  0  0  0  0  0
   -5.5208   29.2579    6.3379 C   0  0  0  0  0  0  0  0  0  0  0  0
   -5.8408   29.9026    5.2504 N   0  0  0  0  0  0  0  0  0  0  0  0
   -5.9833   29.2158    4.0448 C   0  0  0  0  0  0  0  0  0  0  0  0
   -6.2459   29.7687    2.9842 O   0  0  0  0  0  0  0  0  0  0  0  0
   -5.8029   27.7828    4.1241 C   0  0  0  0  0  0  0  0  0  0  0  0
   -5.4825   27.1922    5.3112 C   0  0  0  0  0  0  0  0  0  0  0  0
   -5.4061   25.8555    5.1018 N   0  0  0  0  0  0  0  0  0  0  0  0
   -5.6436   25.5313    3.8094 N   0  0  0  0  0  0  0  0  0  0  0  0
   -5.8870   26.7151    3.2204 C   0  0  0  0  0  0  0  0  0  0  0  0
   -5.3097   27.9011    6.4348 N   0  0  0  0  0  0  0  0  0  0  0  0
   -5.1948   25.1112    5.7571 H   0  0  0  0  0  0  0  0  0  0  0  0
   -5.2971   27.4964    7.3626 H   0  0  0  0  0  0  0  0  0  0  0  0
   -1.0622   30.1834    8.2635 C   0  0  0  0  0  0  0  0  0  0  0  0
   -0.7622   31.2150    9.1803 C   0  0  0  0  0  0  0  0  0  0  0  0
   -1.7161   32.1724    9.5375 C   0  0  0  0  0  0  0  0  0  0  0  0
   -2.9780   32.0828    8.9797 C   0  0  0  0  0  0  0  0  0  0  0  0
   -4.1408   33.0026    9.1824 C   0  0  0  0  0  0  0  0  0  0  0  0
   -5.2988   32.1397    8.6625 C   0  0  0  0  0  0  0  0  0  0  0  0
   -4.7047   31.2262    7.5728 C   0  0  0  0  0  0  0  0  0  0  0  0
   -3.2939   31.0690    8.0694 C   0  0  0  0  0  0  0  0  0  0  0  0
   -2.3476   30.1227    7.6997 C   0  0  0  0  0  0  0  0  0  0  0  0
    0.4890   29.3409    6.4617 C   0  0  0  0  0  0  0  0  0  0  0  0
    0.0091   29.1668    7.9048 C   0  0  0  0  0  0  0  0  0  0  0  0
    1.1859   29.2226    8.8818 C   0  0  0  0  0  0  0  0  0  0  0  0
 24 25  1  0  0  0
 25 26  1  0  0  0
 25 15  1  0  0  0
 15 16  1  0  0  0
 16 17  2  0  0  0
 17 18  1  0  0  0
 18 19  1  0  0  0
 19 20  1  0  0  0
 20 21  1  0  0  0
 21  1  1  0  0  0
  1  3  1  0  0  0
  3  4  2  0  0  0
  4  5  1  0  0  0
  5  6  2  0  0  0
  5  7  1  0  0  0
  7  8  2  0  0  0
  8  9  1  0  0  0
  9 10  1  0  0  0
 10 11  2  0  0  0
  8 12  1  0  0  0
 21 22  1  0  0  0
 22 23  1  0  0  0
 23 15  2  0  0  0
 22 18  2  0  0  0
 12  3  1  0  0  0
 11  7  1  0  0  0
  1  2  1  0  0  0
  9 13  1  0  0  0
 12 14  1  0  0  0
M  END
> <minimizedAffinity>
-10.34138

$$$$
OCNT-2318536


 28 30  0  0  0  0  0  0  0  0999 V2000
   -4.3405   29.3789    8.5216 C   0  0  0  0  0  0  0  0  0  0  0  0
   -3.7827   28.4346    7.6559 C   0  0  0  0  0  0  0  0  0  0  0  0
   -2.4348   28.5367    7.2877 C   0  0  0  0  0  0  0  0  0  0  0  0
   -1.6603   29.5831    7.8172 C   0  0  0  0  0  0  0  0  0  0  0  0
   -2.2146   30.5330    8.6918 C   0  0  0  0  0  0  0  0  0  0  0  0
   -3.5658   30.4165    9.0490 C   0  0  0  0  0  0  0  0  0  0  0  0
   -6.5344   30.8789    9.3702 C   0  0  0  0  0  0  0  0  0  0  0  0
   -6.0377   29.2104    9.0270 S   0  0  0  0  0  0  0  0  0  0  0  0
   -6.0415   28.4673   10.2730 O   0  0  0  0  0  0  0  0  0  0  0  0
   -6.7882   28.7394    7.8781 O   0  0  0  0  0  0  0  0  0  0  0  0
   -1.3544   31.6272    9.2795 C   0  0  0  0  0  0  0  0  0  0  0  0
   -1.7978   32.0630   10.4900 F   0  0  0  0  0  0  0  0  0  0  0  0
   -1.2908   32.7254    8.4791 F   0  0  0  0  0  0  0  0  0  0  0  0
   -0.0665   31.2302    9.4806 F   0  0  0  0  0  0  0  0  0  0  0  0
   -1.7989   27.4977    6.3968 C   0  0  0  0  0  0  0  0  0  0  0  0
   -2.6215   27.2414    5.2405 N   0  0  0  0  0  0  0  0  0  0  0  0
   -2.2770   26.2925    4.3127 C   0  0  0  0  0  0  0  0  0  0  0  0
   -1.2311   25.6616    4.3069 O   0  0  0  0  0  0  0  0  0  0  0  0
   -3.5526   27.6317    5.2102 H   0  0  0  0  0  0  0  0  0  0  0  0
   -3.3025   26.0748    3.2668 C   0  0  0  0  0  0  0  0  0  0  0  0
   -4.6389   26.7728    3.3370 C   0  0  0  0  0  0  0  0  0  0  0  0
   -4.5542   25.2952    3.6155 C   0  0  0  0  0  0  0  0  0  0  0  0
   -5.1416   24.2954    2.5727 C   0  0  0  0  0  0  0  0  0  0  0  0
   -4.9704   22.9305    2.6415 C   0  0  0  0  0  0  0  0  0  0  0  0
   -5.6210   22.2686    1.5552 C   0  0  0  0  0  0  0  0  0  0  0  0
   -6.2336   23.1719    0.7213 C   0  0  0  0  0  0  0  0  0  0  0  0
   -7.1359   22.8131   -0.6950 Cl  0  0  0  0  0  0  0  0  0  0  0  0
   -6.0309   24.7828    1.2032 S   0  0  0  0  0  0  0  0  0  0  0  0
  7  8  1  0  0  0
  8  9  2  0  0  0
  8 10  2  0  0  0
  8  1  1  0  0  0
  1  2  1  0  0  0
  2  3  2  0  0  0
  3 15  1  0  0  0
 15 16  1  0  0  0
 16 17  1  0  0  0
 17 18  2  0  0  0
 17 20  1  0  0  0
 20 21  1  0  0  0
 21 22  1  0  0  0
 22 23  1  0  0  0
 23 24  2  0  0  0
 24 25  1  0  0  0
 25 26  2  0  0  0
 26 27  1  0  0  0
 26 28  1  0  0  0
  3  4  1  0  0  0
  4  5  2  0  0  0
  5 11  1  0  0  0
 11 12  1  0  0  0
 11 13  1  0  0  0
 11 14  1  0  0  0
  5  6  1  0  0  0
  6  1  2  0  0  0
 22 20  1  0  0  0
 28 23  1  0  0  0
 16 19  1  0  0  0
M  END
> <minimizedAffinity>
-9.61164

$$$$
OCNT-2318541


 32 37  0  0  0  0  0  0  0  0999 V2000
   -2.8264   27.8508    6.1988 C   0  0  0  0  0  0  0  0  0  0  0  0
   -1.9328   27.1055    5.4214 C   0  0  0  0  0  0  0  0  0  0  0  0
   -0.5750   27.0639    5.7449 C   0  0  0  0  0  0  0  0  0  0  0  0
   -0.0784   27.7323    6.8116 N   0  0  0  0  0  0  0  0  0  0  0  0
   -0.9652   28.4631    7.5075 C   0  0  0  0  0  0  0  0  0  0  0  0
   -2.3220   28.5955    7.2701 C   0  0  0  0  0  0  0  0  0  0  0  0
   -2.7618   29.5212    8.2616 C   0  0  0  0  0  0  0  0  0  0  0  0
   -1.7530   29.8505    9.0853 N   0  0  0  0  0  0  0  0  0  0  0  0
   -0.6344   29.1993    8.6009 O   0  0  0  0  0  0  0  0  0  0  0  0
   -4.0837   30.1050    8.4565 C   0  0  0  0  0  0  0  0  0  0  0  0
   -4.3889   31.3724    7.9432 C   0  0  0  0  0  0  0  0  0  0  0  0
   -5.6638   31.9160    8.1176 C   0  0  0  0  0  0  0  0  0  0  0  0
   -6.6373   31.2017    8.8132 C   0  0  0  0  0  0  0  0  0  0  0  0
   -6.3376   29.9470    9.3416 C   0  0  0  0  0  0  0  0  0  0  0  0
   -5.0644   29.4003    9.1673 C   0  0  0  0  0  0  0  0  0  0  0  0
   -4.8690   28.8556    5.7302 O   0  0  0  0  0  0  0  0  0  0  0  0
   -4.2532   27.8075    5.8544 C   0  0  0  0  0  0  0  0  0  0  0  0
   -4.7747   26.5567    5.6534 N   0  0  0  0  0  0  0  0  0  0  0  0
   -4.1831   25.7364    5.6912 H   0  0  0  0  0  0  0  0  0  0  0  0
   -6.1490   26.3499    5.2326 C   0  0  0  0  0  0  0  0  0  0  0  0
   -6.2225   25.1516    4.3511 C   0  0  0  0  0  0  0  0  0  0  0  0
   -6.5501   23.9098    4.6603 N   0  0  0  0  0  0  0  0  0  0  0  0
   -6.4669   23.2432    3.4645 C   0  0  0  0  0  0  0  0  0  0  0  0
   -6.7050   21.9018    3.1384 C   0  0  0  0  0  0  0  0  0  0  0  0
   -6.5384   21.5065    1.8023 C   0  0  0  0  0  0  0  0  0  0  0  0
   -6.1430   22.4234    0.8190 C   0  0  0  0  0  0  0  0  0  0  0  0
   -5.8989   23.7672    1.1308 C   0  0  0  0  0  0  0  0  0  0  0  0
   -6.0777   24.1182    2.4636 C   0  0  0  0  0  0  0  0  0  0  0  0
   -5.9128   25.3513    3.0256 O   0  0  0  0  0  0  0  0  0  0  0  0
    0.4326   26.2611    4.9381 C   0  0  0  0  0  0  0  0  0  0  0  0
    0.7919   26.6169    3.5138 C   0  0  0  0  0  0  0  0  0  0  0  0
    0.0044   25.3680    3.7965 C   0  0  0  0  0  0  0  0  0  0  0  0
 16 17  2  0  0  0
 17 18  1  0  0  0
 18 20  1  0  0  0
 20 21  1  0  0  0
 21 22  2  0  0  0
 22 23  1  0  0  0
 23 24  2  0  0  0
 24 25  1  0  0  0
 25 26  2  0  0  0
 26 27  1  0  0  0
 27 28  2  0  0  0
 28 29  1  0  0  0
 17  1  1  0  0  0
  1  2  1  0  0  0
  2  3  2  0  0  0
  3 30  1  0  0  0
 30 31  1  0  0  0
 31 32  1  0  0  0
  3  4  1  0  0  0
  4  5  2  0  0  0
  5  6  1  0  0  0
  6  7  1  0  0  0
  7 10  1  0  0  0
 10 11  2  0  0  0
 11 12  1  0  0  0
 12 13  2  0  0  0
 13 14  1  0  0  0
 14 15  2  0  0  0
  7  8  2  0  0  0
  8  9  1  0  0  0
 29 21  1  0  0  0
  6  1  2  0  0  0
 15 10  1  0  0  0
 28 23  1  0  0  0
 32 30  1  0  0  0
  9  5  1  0  0  0
 18 19  1  0  0  0
M  END
> <minimizedAffinity>
-9.96434

$$$$
OCNT-2318543


 29 33  0  0  0  0  0  0  0  0999 V2000
   -5.4680   24.1246    4.7997 N   0  0  0  0  0  0  0  0  0  0  0  0
   -5.7996   25.4481    4.9120 C   0  0  0  0  0  0  0  0  0  0  0  0
   -6.9427   25.8436    4.6991 O   0  0  0  0  0  0  0  0  0  0  0  0
   -4.7583   26.2849    5.2798 N   0  0  0  0  0  0  0  0  0  0  0  0
   -5.0616   27.7275    5.3541 C   0  0  0  0  0  0  0  0  0  0  0  0
   -4.2221   28.4687    6.4178 C   0  0  0  0  0  0  0  0  0  0  0  0
   -2.8029   28.0428    6.3082 C   0  0  0  0  0  0  0  0  0  0  0  0
   -2.4211   26.8917    5.6484 C   0  0  0  0  0  0  0  0  0  0  0  0
   -3.3507   25.9207    5.0021 C   0  0  0  0  0  0  0  0  0  0  0  0
   -1.0642   26.7799    5.6080 N   0  0  0  0  0  0  0  0  0  0  0  0
   -0.6247   27.8419    6.2489 C   0  0  0  0  0  0  0  0  0  0  0  0
   -1.6383   28.6574    6.7291 N   0  0  0  0  0  0  0  0  0  0  0  0
   -4.8036   23.7928    5.4836 H   0  0  0  0  0  0  0  0  0  0  0  0
   -7.2755   24.1998   -0.5007 C   0  0  0  0  0  0  0  0  0  0  0  0
   -6.7817   23.3424    0.6284 C   0  0  0  0  0  0  0  0  0  0  0  0
   -6.1944   22.0876    0.3617 C   0  0  0  0  0  0  0  0  0  0  0  0
   -5.7506   21.2655    1.4013 C   0  0  0  0  0  0  0  0  0  0  0  0
   -5.9244   21.7099    2.6943 C   0  0  0  0  0  0  0  0  0  0  0  0
   -5.5262   21.0167    3.8078 O   0  0  0  0  0  0  0  0  0  0  0  0
   -6.1786   21.7221    4.8982 C   0  0  0  0  0  0  0  0  0  0  0  0
   -6.4946   23.1616    4.4425 C   0  0  0  0  0  0  0  0  0  0  0  0
   -6.5069   22.9358    2.9756 C   0  0  0  0  0  0  0  0  0  0  0  0
   -6.9440   23.7666    1.9560 C   0  0  0  0  0  0  0  0  0  0  0  0
   -1.4536   29.8508    7.4885 C   0  0  0  0  0  0  0  0  0  0  0  0
   -0.6660   29.8641    8.6463 C   0  0  0  0  0  0  0  0  0  0  0  0
   -0.4916   31.0463    9.3735 C   0  0  0  0  0  0  0  0  0  0  0  0
   -1.0967   32.2263    8.9519 C   0  0  0  0  0  0  0  0  0  0  0  0
   -1.8740   32.2289    7.7979 C   0  0  0  0  0  0  0  0  0  0  0  0
   -2.0503   31.0505    7.0660 C   0  0  0  0  0  0  0  0  0  0  0  0
 14 15  1  0  0  0
 15 16  1  0  0  0
 16 17  2  0  0  0
 17 18  1  0  0  0
 18 19  1  0  0  0
 19 20  1  0  0  0
 20 21  1  0  0  0
 21  1  1  0  0  0
  1  2  1  0  0  0
  2  3  2  0  0  0
  2  4  1  0  0  0
  4  5  1  0  0  0
  5  6  1  0  0  0
  6  7  1  0  0  0
  7  8  2  0  0  0
  8  9  1  0  0  0
  8 10  1  0  0  0
 10 11  2  0  0  0
 11 12  1  0  0  0
 12 24  1  0  0  0
 24 25  2  0  0  0
 25 26  1  0  0  0
 26 27  2  0  0  0
 27 28  1  0  0  0
 28 29  2  0  0  0
 21 22  1  0  0  0
 22 23  1  0  0  0
 23 15  2  0  0  0
 22 18  2  0  0  0
  9  4  1  0  0  0
 29 24  1  0  0  0
 12  7  1  0  0  0
  1 13  1  0  0  0
M  END
> <minimizedAffinity>
-10.68936

$$$$
OCNT-2318555


 23 25  0  0  0  0  0  0  0  0999 V2000
   -3.4000   28.8980    7.8466 S   0  0  0  0  0  0  0  0  0  0  0  0
   -3.6358   29.3399    6.4910 O   0  0  0  0  0  0  0  0  0  0  0  0
   -4.4714   28.8310    8.8144 O   0  0  0  0  0  0  0  0  0  0  0  0
   -2.2863   30.0854    8.4982 C   0  0  0  0  0  0  0  0  0  0  0  0
   -0.9324   30.0089    8.7866 C   0  0  0  0  0  0  0  0  0  0  0  0
   -0.5756   31.2766    9.2578 C   0  0  0  0  0  0  0  0  0  0  0  0
   -1.6101   32.1136    9.2704 N   0  0  0  0  0  0  0  0  0  0  0  0
   -2.6549   31.3617    8.8529 N   0  0  0  0  0  0  0  0  0  0  0  0
   -4.0192   31.9328    8.7324 C   0  0  0  0  0  0  0  0  0  0  0  0
   -4.2585   32.6356    7.3722 C   0  0  0  0  0  0  0  0  0  0  0  0
   -5.0569   33.7013    8.1529 C   0  0  0  0  0  0  0  0  0  0  0  0
   -4.2094   33.3267    9.3880 C   0  0  0  0  0  0  0  0  0  0  0  0
   -2.6214   27.4167    7.7588 N   0  0  0  0  0  0  0  0  0  0  0  0
   -1.7533   27.4646    8.2936 H   0  0  0  0  0  0  0  0  0  0  0  0
   -0.5788   26.6842    4.9899 C   0  0  0  0  0  0  0  0  0  0  0  0
   -1.3801   25.9899    4.0968 C   0  0  0  0  0  0  0  0  0  0  0  0
   -2.7051   25.7532    4.4461 C   0  0  0  0  0  0  0  0  0  0  0  0
   -3.1802   26.2258    5.6650 C   0  0  0  0  0  0  0  0  0  0  0  0
   -2.3028   26.9329    6.4709 C   0  0  0  0  0  0  0  0  0  0  0  0
   -1.0087   27.1491    6.1822 N   0  0  0  0  0  0  0  0  0  0  0  0
    0.7322   26.8791    4.6026 O   0  0  0  0  0  0  0  0  0  0  0  0
    2.3276   25.8378    3.1708 C   0  0  0  0  0  0  0  0  0  0  0  0
    0.9793   26.5326    3.2392 C   0  0  0  0  0  0  0  0  0  0  0  0
 22 23  1  0  0  0
 23 21  1  0  0  0
 21 15  1  0  0  0
 15 16  1  0  0  0
 16 17  2  0  0  0
 17 18  1  0  0  0
 18 19  2  0  0  0
 19 13  1  0  0  0
 13  1  1  0  0  0
  1  2  2  0  0  0
  1  3  2  0  0  0
  1  4  1  0  0  0
  4  5  2  0  0  0
  5  6  1  0  0  0
  6  7  2  0  0  0
  7  8  1  0  0  0
  8  9  1  0  0  0
  9 10  1  0  0  0
 10 11  1  0  0  0
 11 12  1  0  0  0
 19 20  1  0  0  0
 20 15  2  0  0  0
  8  4  1  0  0  0
 12  9  1  0  0  0
 13 14  1  0  0  0
M  END
> <minimizedAffinity>
-8.01021

$$$$
OCNT-2318566


 24 26  0  0  0  0  0  0  0  0999 V2000
   -4.8688   30.4357    6.2487 O   0  0  0  0  0  0  0  0  0  0  0  0
   -4.7068   29.4147    6.9064 C   0  0  0  0  0  0  0  0  0  0  0  0
   -4.7238   28.1220    6.4471 N   0  0  0  0  0  0  0  0  0  0  0  0
   -4.5141   27.3661    7.0823 H   0  0  0  0  0  0  0  0  0  0  0  0
   -4.9470   27.6523    5.1768 C   0  0  0  0  0  0  0  0  0  0  0  0
   -5.9925   28.1989    4.5365 N   0  0  0  0  0  0  0  0  0  0  0  0
   -6.0335   27.5672    3.3556 N   0  0  0  0  0  0  0  0  0  0  0  0
   -5.0441   26.6477    3.1949 C   0  0  0  0  0  0  0  0  0  0  0  0
   -4.3056   26.6969    4.3525 C   0  0  0  0  0  0  0  0  0  0  0  0
   -6.7710   27.8157    2.7059 H   0  0  0  0  0  0  0  0  0  0  0  0
   -3.0719   25.8116    4.6300 C   0  0  0  0  0  0  0  0  0  0  0  0
   -1.8939   26.4060    5.3593 C   0  0  0  0  0  0  0  0  0  0  0  0
   -1.7702   26.0614    3.9071 C   0  0  0  0  0  0  0  0  0  0  0  0
   -4.4569   29.4966    8.3998 C   0  0  0  0  0  0  0  0  0  0  0  0
   -3.0913   30.0407    8.6993 C   0  0  0  0  0  0  0  0  0  0  0  0
   -2.9393   31.1737    9.4894 C   0  0  0  0  0  0  0  0  0  0  0  0
   -1.6638   31.6550    9.7390 C   0  0  0  0  0  0  0  0  0  0  0  0
   -0.5731   31.0024    9.1826 C   0  0  0  0  0  0  0  0  0  0  0  0
   -0.7872   29.8780    8.3859 C   0  0  0  0  0  0  0  0  0  0  0  0
   -2.0391   29.3913    8.1508 N   0  0  0  0  0  0  0  0  0  0  0  0
    0.4182   29.1740    7.7805 C   0  0  0  0  0  0  0  0  0  0  0  0
    0.8443   29.7010    6.5977 F   0  0  0  0  0  0  0  0  0  0  0  0
    1.5068   29.1981    8.6067 F   0  0  0  0  0  0  0  0  0  0  0  0
    0.1805   27.8512    7.5323 F   0  0  0  0  0  0  0  0  0  0  0  0
  1  2  2  0  0  0
  2 14  1  0  0  0
 14 15  1  0  0  0
 15 16  2  0  0  0
 16 17  1  0  0  0
 17 18  2  0  0  0
 18 19  1  0  0  0
 19 21  1  0  0  0
 21 22  1  0  0  0
 21 23  1  0  0  0
 21 24  1  0  0  0
 19 20  2  0  0  0
  2  3  1  0  0  0
  3  5  1  0  0  0
  5  6  2  0  0  0
  6  7  1  0  0  0
  7  8  1  0  0  0
  8  9  2  0  0  0
  9 11  1  0  0  0
 11 12  1  0  0  0
 12 13  1  0  0  0
 20 15  1  0  0  0
  9  5  1  0  0  0
 13 11  1  0  0  0
  3  4  1  0  0  0
  7 10  1  0  0  0
M  END
> <minimizedAffinity>
-8.72475

$$$$
OCNT-2318569


 28 32  0  0  0  0  0  0  0  0999 V2000
   -4.8503   26.3400    3.6477 C   0  0  0  0  0  0  0  0  0  0  0  0
   -5.6064   27.1967    4.3620 N   0  0  0  0  0  0  0  0  0  0  0  0
   -5.0207   27.8725    5.3625 C   0  0  0  0  0  0  0  0  0  0  0  0
   -3.7347   27.7442    5.7194 N   0  0  0  0  0  0  0  0  0  0  0  0
   -3.0002   26.8557    5.0480 C   0  0  0  0  0  0  0  0  0  0  0  0
   -1.6747   26.6827    5.4287 C   0  0  0  0  0  0  0  0  0  0  0  0
   -0.8407   25.7503    4.8076 C   0  0  0  0  0  0  0  0  0  0  0  0
   -1.3413   24.9564    3.7873 C   0  0  0  0  0  0  0  0  0  0  0  0
   -2.6658   25.1172    3.3865 C   0  0  0  0  0  0  0  0  0  0  0  0
   -3.5074   26.0873    3.9922 C   0  0  0  0  0  0  0  0  0  0  0  0
   -6.4685   25.5075   -0.3310 C   0  0  0  0  0  0  0  0  0  0  0  0
   -5.5203   24.6244    0.4788 C   0  0  0  0  0  0  0  0  0  0  0  0
   -6.2631   23.7457    1.4841 C   0  0  0  0  0  0  0  0  0  0  0  0
   -6.4467   24.6435    2.7311 C   0  0  0  0  0  0  0  0  0  0  0  0
   -5.4542   25.7308    2.5513 N   0  0  0  0  0  0  0  0  0  0  0  0
   -4.6047   25.4393    1.3951 C   0  0  0  0  0  0  0  0  0  0  0  0
   -6.3390   23.8391    4.0067 C   0  0  0  0  0  0  0  0  0  0  0  0
   -5.3576   22.8624    4.2165 C   0  0  0  0  0  0  0  0  0  0  0  0
   -5.3211   22.1560    5.4151 C   0  0  0  0  0  0  0  0  0  0  0  0
   -6.2804   22.4386    6.3712 C   0  0  0  0  0  0  0  0  0  0  0  0
   -7.2518   23.3611    6.2084 N   0  0  0  0  0  0  0  0  0  0  0  0
   -7.2539   24.0396    5.0379 C   0  0  0  0  0  0  0  0  0  0  0  0
   -5.8478   28.8372    6.1115 C   0  0  0  0  0  0  0  0  0  0  0  0
   -6.9486   29.4758    5.5203 C   0  0  0  0  0  0  0  0  0  0  0  0
   -7.6953   30.3773    6.2628 C   0  0  0  0  0  0  0  0  0  0  0  0
   -7.4306   30.6926    7.5459 N   0  0  0  0  0  0  0  0  0  0  0  0
   -6.3733   30.0760    8.1107 C   0  0  0  0  0  0  0  0  0  0  0  0
   -5.5701   29.1609    7.4483 C   0  0  0  0  0  0  0  0  0  0  0  0
 11 12  1  0  0  0
 12 13  1  0  0  0
 13 14  1  0  0  0
 14 17  1  0  0  0
 17 18  1  0  0  0
 18 19  2  0  0  0
 19 20  1  0  0  0
 20 21  2  0  0  0
 21 22  1  0  0  0
 14 15  1  0  0  0
 15  1  1  0  0  0
  1  2  1  0  0  0
  2  3  2  0  0  0
  3 23  1  0  0  0
 23 24  2  0  0  0
 24 25  1  0  0  0
 25 26  2  0  0  0
 26 27  1  0  0  0
 27 28  2  0  0  0
  3  4  1  0  0  0
  4  5  2  0  0  0
  5  6  1  0  0  0
  6  7  2  0  0  0
  7  8  1  0  0  0
  8  9  2  0  0  0
  9 10  1  0  0  0
 15 16  1  0  0  0
 16 12  1  0  0  0
 22 17  2  0  0  0
 10  1  2  0  0  0
 28 23  1  0  0  0
 10  5  1  0  0  0
M  END
> <minimizedAffinity>
-8.07869

$$$$
OCNT-2318570


 23 26  0  0  0  0  0  0  0  0999 V2000
   -5.7030   29.8197    6.9698 N   0  0  0  0  0  0  0  0  0  0  0  0
   -6.0715   30.1040    8.3725 C   0  0  0  0  0  0  0  0  0  0  0  0
   -4.7816   29.3182    8.8411 C   0  0  0  0  0  0  0  0  0  0  0  0
   -5.0361   28.4210    9.9644 O   0  0  0  0  0  0  0  0  0  0  0  0
   -4.9293   28.6431    7.4176 C   0  0  0  0  0  0  0  0  0  0  0  0
   -5.8873   27.9967    9.7698 H   0  0  0  0  0  0  0  0  0  0  0  0
   -3.3840   30.1383    9.0673 C   0  0  0  0  0  0  0  0  0  0  0  0
   -3.3682   31.3862    9.7337 C   0  0  0  0  0  0  0  0  0  0  0  0
   -2.2022   32.1268    9.9159 C   0  0  0  0  0  0  0  0  0  0  0  0
   -0.9942   31.6409    9.4386 C   0  0  0  0  0  0  0  0  0  0  0  0
   -0.9350   30.4058    8.7876 C   0  0  0  0  0  0  0  0  0  0  0  0
    0.3002   29.9255    8.3208 C   0  0  0  0  0  0  0  0  0  0  0  0
    0.3950   28.6927    7.6804 C   0  0  0  0  0  0  0  0  0  0  0  0
   -0.7455   27.9233    7.5049 C   0  0  0  0  0  0  0  0  0  0  0  0
   -1.9807   28.3915    7.9627 C   0  0  0  0  0  0  0  0  0  0  0  0
   -2.1198   29.6412    8.6054 C   0  0  0  0  0  0  0  0  0  0  0  0
   -6.8615   29.4120    6.1761 C   0  0  0  0  0  0  0  0  0  0  0  0
   -6.3719   26.5173    5.1865 C   0  0  0  0  0  0  0  0  0  0  0  0
   -6.2607   27.7194    4.3923 N   0  0  0  0  0  0  0  0  0  0  0  0
   -5.9049   27.6144    3.0954 N   0  0  0  0  0  0  0  0  0  0  0  0
   -5.8667   28.8767    2.6695 C   0  0  0  0  0  0  0  0  0  0  0  0
   -6.1994   29.7916    3.6817 C   0  0  0  0  0  0  0  0  0  0  0  0
   -6.4539   29.0182    4.7973 C   0  0  0  0  0  0  0  0  0  0  0  0
 18 19  1  0  0  0
 19 20  1  0  0  0
 20 21  2  0  0  0
 21 22  1  0  0  0
 22 23  2  0  0  0
 23 17  1  0  0  0
 17  1  1  0  0  0
  1  2  1  0  0  0
  2  3  1  0  0  0
  3  4  1  0  0  0
  3  7  1  0  0  0
  7  8  2  0  0  0
  8  9  1  0  0  0
  9 10  2  0  0  0
 10 11  1  0  0  0
 11 12  2  0  0  0
 12 13  1  0  0  0
 13 14  2  0  0  0
 14 15  1  0  0  0
 15 16  2  0  0  0
  3  5  1  0  0  0
 23 19  1  0  0  0
  5  1  1  0  0  0
 16  7  1  0  0  0
 16 11  1  0  0  0
  4  6  1  0  0  0
M  END
> <minimizedAffinity>
-9.34823

$$$$
OCNT-2318576


 37 39  0  0  0  0  0  0  0  0999 V2000
   -1.7191   26.6884    7.1271 O   0  0  0  0  0  0  0  0  0  0  0  0
   -2.1606   27.4512    6.2798 C   0  0  0  0  0  0  0  0  0  0  0  0
   -2.7306   27.0720    5.0958 N   0  0  0  0  0  0  0  0  0  0  0  0
   -2.1579   28.8160    6.4038 N   0  0  0  0  0  0  0  0  0  0  0  0
   -3.4475   27.7103    4.7639 H   0  0  0  0  0  0  0  0  0  0  0  0
   -2.1089   29.3209    5.5265 H   0  0  0  0  0  0  0  0  0  0  0  0
   -2.9266   25.6798    4.7466 C   0  0  0  0  0  0  0  0  0  0  0  0
   -4.1102   25.4209    3.7894 C   0  0  0  0  0  0  0  0  0  0  0  0
   -5.4001   25.0108    4.5111 C   0  0  0  0  0  0  0  0  0  0  0  0
   -6.1383   26.1736    5.1892 C   0  0  0  0  0  0  0  0  0  0  0  0
   -5.7773   27.4951    4.6475 N   0  0  0  0  0  0  0  0  0  0  0  0
   -5.6170   27.4293    3.1936 C   0  0  0  0  0  0  0  0  0  0  0  0
   -4.3720   26.6059    2.8368 C   0  0  0  0  0  0  0  0  0  0  0  0
   -6.7551   28.5224    5.0667 C   0  0  0  0  0  0  0  0  0  0  0  0
   -6.0678   29.7749    5.6846 C   0  0  0  0  0  0  0  0  0  0  0  0
   -4.6851   29.7927    5.2864 O   0  0  0  0  0  0  0  0  0  0  0  0
   -4.4677   28.8681    5.0623 H   0  0  0  0  0  0  0  0  0  0  0  0
   -6.1283   29.8954    7.1976 C   0  0  0  0  0  0  0  0  0  0  0  0
   -5.5164   28.9022    7.9840 C   0  0  0  0  0  0  0  0  0  0  0  0
   -5.5227   28.9762    9.3777 C   0  0  0  0  0  0  0  0  0  0  0  0
   -6.1391   30.0484   10.0139 C   0  0  0  0  0  0  0  0  0  0  0  0
   -6.7411   31.0486    9.2560 C   0  0  0  0  0  0  0  0  0  0  0  0
   -6.7312   30.9768    7.8594 C   0  0  0  0  0  0  0  0  0  0  0  0
   -1.5239   29.4529    7.5511 C   0  0  0  0  0  0  0  0  0  0  0  0
   -2.3259   30.6972    7.9100 C   0  0  0  0  0  0  0  0  0  0  0  0
   -2.8777   31.4688    6.8712 C   0  0  0  0  0  0  0  0  0  0  0  0
   -3.5985   32.6352    7.1430 C   0  0  0  0  0  0  0  0  0  0  0  0
   -3.7838   33.0635    8.4631 C   0  0  0  0  0  0  0  0  0  0  0  0
   -3.2246   32.3056    9.5014 C   0  0  0  0  0  0  0  0  0  0  0  0
   -2.5007   31.1404    9.2283 C   0  0  0  0  0  0  0  0  0  0  0  0
   -4.5823   34.3021    8.7825 C   0  0  0  0  0  0  0  0  0  0  0  0
   -4.0140   35.4585    8.3379 F   0  0  0  0  0  0  0  0  0  0  0  0
   -5.8264   34.2691    8.2246 F   0  0  0  0  0  0  0  0  0  0  0  0
   -4.7860   34.4733   10.1194 F   0  0  0  0  0  0  0  0  0  0  0  0
   -0.0076   29.6711    7.3104 C   0  0  0  0  0  0  0  0  0  0  0  0
    0.7699   28.5261    7.6586 O   0  0  0  0  0  0  0  0  0  0  0  0
    0.4889   27.8009    7.0728 H   0  0  0  0  0  0  0  0  0  0  0  0
  1  2  2  0  0  0
  2  3  1  0  0  0
  3  7  1  0  0  0
  7  8  1  0  0  0
  8  9  1  0  0  0
  9 10  1  0  0  0
 10 11  1  0  0  0
 11 14  1  0  0  0
 14 15  1  0  0  0
 15 16  1  0  0  0
 15 18  1  0  0  0
 18 19  2  0  0  0
 19 20  1  0  0  0
 20 21  2  0  0  0
 21 22  1  0  0  0
 22 23  2  0  0  0
 11 12  1  0  0  0
 12 13  1  0  0  0
  2  4  1  0  0  0
  4 24  1  0  0  0
 24 35  1  0  0  0
 35 36  1  0  0  0
 24 25  1  0  0  0
 25 26  1  0  0  0
 26 27  2  0  0  0
 27 28  1  0  0  0
 28 31  1  0  0  0
 31 32  1  0  0  0
 31 33  1  0  0  0
 31 34  1  0  0  0
 28 29  2  0  0  0
 29 30  1  0  0  0
 13  8  1  0  0  0
 30 25  2  0  0  0
 23 18  1  0  0  0
  3  5  1  0  0  0
 16 17  1  0  0  0
  4  6  1  0  0  0
 36 37  1  0  0  0
M  END
> <minimizedAffinity>
-9.65017

$$$$
OCNT-2318584


 27 29  0  0  0  0  0  0  0  0999 V2000
   -5.5042   23.3135    4.5543 C   0  0  0  0  0  0  0  0  0  0  0  0
   -6.7254   23.4678    0.9204 C   0  0  0  0  0  0  0  0  0  0  0  0
   -6.4808   22.1671    0.4806 C   0  0  0  0  0  0  0  0  0  0  0  0
   -5.9053   21.2282    1.3353 C   0  0  0  0  0  0  0  0  0  0  0  0
   -5.5803   21.5826    2.6454 C   0  0  0  0  0  0  0  0  0  0  0  0
   -5.8406   22.8753    3.1234 C   0  0  0  0  0  0  0  0  0  0  0  0
   -6.4002   23.8181    2.2342 C   0  0  0  0  0  0  0  0  0  0  0  0
   -6.4627   25.3335   -0.5297 C   0  0  0  0  0  0  0  0  0  0  0  0
   -7.2849   24.2924   -0.0180 O   0  0  0  0  0  0  0  0  0  0  0  0
   -6.3519   22.5770    5.5103 N   0  0  0  0  0  0  0  0  0  0  0  0
   -7.6037   23.2231    5.8907 C   0  0  0  0  0  0  0  0  0  0  0  0
   -8.0993   22.3524    7.0378 C   0  0  0  0  0  0  0  0  0  0  0  0
   -6.8508   21.6845    7.6048 C   0  0  0  0  0  0  0  0  0  0  0  0
   -5.6981   22.2167    6.7655 C   0  0  0  0  0  0  0  0  0  0  0  0
   -5.4265   24.8629    4.7493 C   0  0  0  0  0  0  0  0  0  0  0  0
   -4.2083   25.2546    5.4956 N   0  0  0  0  0  0  0  0  0  0  0  0
   -4.2309   25.1496    6.5104 H   0  0  0  0  0  0  0  0  0  0  0  0
   -3.4145   26.6513    5.0261 S   0  0  0  0  0  0  0  0  0  0  0  0
   -3.1366   26.5431    3.6111 O   0  0  0  0  0  0  0  0  0  0  0  0
   -4.1933   27.7487    5.5544 O   0  0  0  0  0  0  0  0  0  0  0  0
   -1.8714   26.5589    5.9263 C   0  0  0  0  0  0  0  0  0  0  0  0
   -1.9267   27.2792    7.2681 C   0  0  0  0  0  0  0  0  0  0  0  0
   -1.3574   28.6972    7.2242 C   0  0  0  0  0  0  0  0  0  0  0  0
    0.0760   28.8021    6.7079 C   0  0  0  0  0  0  0  0  0  0  0  0
    0.8841   29.1254    7.9420 C   0  0  0  0  0  0  0  0  0  0  0  0
   -0.1096   29.8949    8.7785 C   0  0  0  0  0  0  0  0  0  0  0  0
   -1.3713   29.2570    8.5505 O   0  0  0  0  0  0  0  0  0  0  0  0
  8  9  1  0  0  0
  9  2  1  0  0  0
  2  3  1  0  0  0
  3  4  2  0  0  0
  4  5  1  0  0  0
  5  6  2  0  0  0
  6  1  1  0  0  0
  1 15  1  0  0  0
 15 16  1  0  0  0
 16 18  1  0  0  0
 18 19  2  0  0  0
 18 20  2  0  0  0
 18 21  1  0  0  0
 21 22  1  0  0  0
 22 23  1  0  0  0
 23 24  1  0  0  0
 24 25  1  0  0  0
 25 26  1  0  0  0
 26 27  1  0  0  0
  1 10  1  0  0  0
 10 11  1  0  0  0
 11 12  1  0  0  0
 12 13  1  0  0  0
 13 14  1  0  0  0
  6  7  1  0  0  0
  7  2  2  0  0  0
 27 23  1  0  0  0
 14 10  1  0  0  0
 16 17  1  0  0  0
M  END
> <minimizedAffinity>
-8.45870

$$$$
OCNT-2318585


 25 28  0  0  0  0  0  0  0  0999 V2000
   -6.3585   29.9896    6.4435 N   0  0  0  0  0  0  0  0  0  0  0  0
   -6.2200   30.9576    6.1633 H   0  0  0  0  0  0  0  0  0  0  0  0
   -5.7270   26.2012    2.1660 C   0  0  0  0  0  0  0  0  0  0  0  0
   -5.9060   27.1337    3.3360 C   0  0  0  0  0  0  0  0  0  0  0  0
   -5.8832   28.5116    3.0567 C   0  0  0  0  0  0  0  0  0  0  0  0
   -6.0408   29.4676    4.0638 C   0  0  0  0  0  0  0  0  0  0  0  0
   -6.2590   29.0872    5.3846 C   0  0  0  0  0  0  0  0  0  0  0  0
   -6.2373   27.7141    5.6766 C   0  0  0  0  0  0  0  0  0  0  0  0
   -6.0758   26.7263    4.6776 C   0  0  0  0  0  0  0  0  0  0  0  0
   -6.0850   25.3561    5.0737 N   0  0  0  0  0  0  0  0  0  0  0  0
   -7.1566   24.5054    5.2380 C   0  0  0  0  0  0  0  0  0  0  0  0
   -6.7313   23.3184    5.6048 N   0  0  0  0  0  0  0  0  0  0  0  0
   -5.3719   23.4218    5.6757 N   0  0  0  0  0  0  0  0  0  0  0  0
   -4.9713   24.6437    5.3591 N   0  0  0  0  0  0  0  0  0  0  0  0
   -5.7329   29.6902    7.7256 C   0  0  0  0  0  0  0  0  0  0  0  0
   -4.9362   30.8942    8.1879 C   0  0  0  0  0  0  0  0  0  0  0  0
   -5.6101   32.1246    8.2982 C   0  0  0  0  0  0  0  0  0  0  0  0
   -4.9391   33.2704    8.7091 C   0  0  0  0  0  0  0  0  0  0  0  0
   -3.5813   33.2073    9.0067 C   0  0  0  0  0  0  0  0  0  0  0  0
   -2.8722   32.0030    8.8890 C   0  0  0  0  0  0  0  0  0  0  0  0
   -1.4986   31.9675    9.1808 C   0  0  0  0  0  0  0  0  0  0  0  0
   -0.7686   30.7867    9.0610 C   0  0  0  0  0  0  0  0  0  0  0  0
   -1.4036   29.6250    8.6453 C   0  0  0  0  0  0  0  0  0  0  0  0
   -2.7699   29.6433    8.3531 C   0  0  0  0  0  0  0  0  0  0  0  0
   -3.5412   30.8240    8.4704 C   0  0  0  0  0  0  0  0  0  0  0  0
  3  4  1  0  0  0
  4  5  1  0  0  0
  5  6  2  0  0  0
  6  7  1  0  0  0
  7  1  1  0  0  0
  1 15  1  0  0  0
 15 16  1  0  0  0
 16 17  2  0  0  0
 17 18  1  0  0  0
 18 19  2  0  0  0
 19 20  1  0  0  0
 20 21  2  0  0  0
 21 22  1  0  0  0
 22 23  2  0  0  0
 23 24  1  0  0  0
 24 25  2  0  0  0
  7  8  2  0  0  0
  8  9  1  0  0  0
  9 10  1  0  0  0
 10 11  1  0  0  0
 11 12  2  0  0  0
 12 13  1  0  0  0
 13 14  2  0  0  0
  9  4  2  0  0  0
 14 10  1  0  0  0
 25 16  1  0  0  0
 25 20  1  0  0  0
  1  2  1  0  0  0
M  END
> <minimizedAffinity>
-10.02236

$$$$
OCNT-2318618


 30 34  0  0  0  0  0  0  0  0999 V2000
   -4.3747   27.0675    4.8533 C   0  0  0  0  0  0  0  0  0  0  0  0
   -5.3008   27.7936    4.2656 N   0  0  0  0  0  0  0  0  0  0  0  0
   -5.5374   28.9017    5.0349 N   0  0  0  0  0  0  0  0  0  0  0  0
   -4.7324   28.8688    6.0831 C   0  0  0  0  0  0  0  0  0  0  0  0
   -3.9165   27.7640    5.9518 N   0  0  0  0  0  0  0  0  0  0  0  0
   -2.6907   27.4991    6.6613 C   0  0  0  0  0  0  0  0  0  0  0  0
   -6.9196   22.9547    1.5512 C   0  0  0  0  0  0  0  0  0  0  0  0
   -6.0406   24.0102    1.2912 C   0  0  0  0  0  0  0  0  0  0  0  0
   -5.2558   24.5646    2.3164 C   0  0  0  0  0  0  0  0  0  0  0  0
   -5.3702   24.0793    3.6283 C   0  0  0  0  0  0  0  0  0  0  0  0
   -6.2460   23.0121    3.8815 C   0  0  0  0  0  0  0  0  0  0  0  0
   -7.0195   22.4451    2.8561 C   0  0  0  0  0  0  0  0  0  0  0  0
   -7.9487   21.3037    3.1662 C   0  0  0  0  0  0  0  0  0  0  0  0
   -4.5432   24.6390    4.7704 C   0  0  0  0  0  0  0  0  0  0  0  0
   -3.8314   25.8848    4.4374 N   0  0  0  0  0  0  0  0  0  0  0  0
   -3.2552   25.8807    3.0834 C   0  0  0  0  0  0  0  0  0  0  0  0
   -4.3359   25.7209    2.0119 C   0  0  0  0  0  0  0  0  0  0  0  0
   -7.6928   22.8819   -0.7034 C   0  0  0  0  0  0  0  0  0  0  0  0
   -7.7156   22.3484    0.6139 O   0  0  0  0  0  0  0  0  0  0  0  0
   -4.7077   29.8877    7.1225 C   0  0  0  0  0  0  0  0  0  0  0  0
   -5.7093   29.9475    8.1050 C   0  0  0  0  0  0  0  0  0  0  0  0
   -5.6458   30.9110    9.1151 C   0  0  0  0  0  0  0  0  0  0  0  0
   -6.7333   30.9534   10.1515 C   0  0  0  0  0  0  0  0  0  0  0  0
   -4.6530   31.8266    9.2379 N   0  0  0  0  0  0  0  0  0  0  0  0
   -3.7103   31.7058    8.2895 C   0  0  0  0  0  0  0  0  0  0  0  0
   -3.6523   30.8048    7.2335 C   0  0  0  0  0  0  0  0  0  0  0  0
   -2.5067   31.0207    6.4919 N   0  0  0  0  0  0  0  0  0  0  0  0
   -1.8882   32.0159    7.0912 C   0  0  0  0  0  0  0  0  0  0  0  0
   -2.5819   32.4637    8.1798 N   0  0  0  0  0  0  0  0  0  0  0  0
   -2.3209   33.2070    8.8095 H   0  0  0  0  0  0  0  0  0  0  0  0
 18 19  1  0  0  0
 19  7  1  0  0  0
  7  8  2  0  0  0
  8  9  1  0  0  0
  9 10  2  0  0  0
 10 11  1  0  0  0
 11 12  2  0  0  0
 12 13  1  0  0  0
 10 14  1  0  0  0
 14 15  1  0  0  0
 15  1  1  0  0  0
  1  2  2  0  0  0
  2  3  1  0  0  0
  3  4  2  0  0  0
  4 20  1  0  0  0
 20 21  1  0  0  0
 21 22  2  0  0  0
 22 23  1  0  0  0
 22 24  1  0  0  0
 24 25  2  0  0  0
 25 26  1  0  0  0
 26 27  1  0  0  0
 27 28  2  0  0  0
 28 29  1  0  0  0
  4  5  1  0  0  0
  5  6  1  0  0  0
 15 16  1  0  0  0
 16 17  1  0  0  0
 12  7  1  0  0  0
  5  1  1  0  0  0
 17  9  1  0  0  0
 26 20  2  0  0  0
 29 25  1  0  0  0
 29 30  1  0  0  0
M  END
> <minimizedAffinity>
-9.55365

$$$$
OCNT-2318623


 28 32  0  0  0  0  0  0  0  0999 V2000
   -5.1841   23.6760    2.9971 C   0  0  0  0  0  0  0  0  0  0  0  0
   -3.9439   24.3204    2.9742 C   0  0  0  0  0  0  0  0  0  0  0  0
   -3.6539   25.3495    3.8831 C   0  0  0  0  0  0  0  0  0  0  0  0
   -4.6148   25.7707    4.8110 C   0  0  0  0  0  0  0  0  0  0  0  0
   -5.8526   25.0978    4.8430 C   0  0  0  0  0  0  0  0  0  0  0  0
   -6.1455   24.0610    3.9475 C   0  0  0  0  0  0  0  0  0  0  0  0
   -4.3413   26.9259    5.7976 C   0  0  0  0  0  0  0  0  0  0  0  0
   -2.9537   27.4898    5.7496 N   0  0  0  0  0  0  0  0  0  0  0  0
   -1.9701   26.5041    5.2786 C   0  0  0  0  0  0  0  0  0  0  0  0
   -2.3096   26.0162    3.8719 C   0  0  0  0  0  0  0  0  0  0  0  0
   -5.3425   28.0484    5.5493 C   0  0  0  0  0  0  0  0  0  0  0  0
   -5.6046   28.7183    4.3655 C   0  0  0  0  0  0  0  0  0  0  0  0
   -6.5998   29.7244    4.5136 C   0  0  0  0  0  0  0  0  0  0  0  0
   -7.0738   29.7916    5.8034 C   0  0  0  0  0  0  0  0  0  0  0  0
   -6.3441   28.6280    6.8229 S   0  0  0  0  0  0  0  0  0  0  0  0
   -5.8286   22.9830    0.8070 C   0  0  0  0  0  0  0  0  0  0  0  0
   -5.5378   22.6493    2.1563 O   0  0  0  0  0  0  0  0  0  0  0  0
   -7.3348   23.3710    3.9175 O   0  0  0  0  0  0  0  0  0  0  0  0
   -8.1053   23.3350    5.1085 C   0  0  0  0  0  0  0  0  0  0  0  0
   -2.5195   27.9927    7.0749 C   0  0  0  0  0  0  0  0  0  0  0  0
   -2.3567   29.4646    7.1586 C   0  0  0  0  0  0  0  0  0  0  0  0
   -1.4603   30.3781    6.6543 C   0  0  0  0  0  0  0  0  0  0  0  0
   -1.7600   31.6343    7.1156 N   0  0  0  0  0  0  0  0  0  0  0  0
   -2.8255   31.4511    7.8710 C   0  0  0  0  0  0  0  0  0  0  0  0
   -3.2400   30.1481    7.9478 O   0  0  0  0  0  0  0  0  0  0  0  0
   -3.5503   32.6018    8.6332 C   0  0  0  0  0  0  0  0  0  0  0  0
   -4.6586   33.3510    7.9373 C   0  0  0  0  0  0  0  0  0  0  0  0
   -4.9791   32.4280    9.0796 C   0  0  0  0  0  0  0  0  0  0  0  0
 16 17  1  0  0  0
 17  1  1  0  0  0
  1  2  2  0  0  0
  2  3  1  0  0  0
  3  4  2  0  0  0
  4  5  1  0  0  0
  5  6  2  0  0  0
  6 18  1  0  0  0
 18 19  1  0  0  0
  4  7  1  0  0  0
  7 11  1  0  0  0
 11 12  2  0  0  0
 12 13  1  0  0  0
 13 14  2  0  0  0
 14 15  1  0  0  0
  7  8  1  0  0  0
  8 20  1  0  0  0
 20 21  1  0  0  0
 21 22  2  0  0  0
 22 23  1  0  0  0
 23 24  2  0  0  0
 24 26  1  0  0  0
 26 27  1  0  0  0
 27 28  1  0  0  0
 24 25  1  0  0  0
  8  9  1  0  0  0
  9 10  1  0  0  0
  6  1  1  0  0  0
 15 11  1  0  0  0
 25 21  1  0  0  0
 10  3  1  0  0  0
 28 26  1  0  0  0
M  END
> <minimizedAffinity>
-8.30911

$$$$
OCNT-2318634


 25 27  0  0  0  0  0  0  0  0999 V2000
   -4.8913   26.5898    4.9463 C   0  0  0  0  0  0  0  0  0  0  0  0
   -5.6265   26.0339    3.9721 N   0  0  0  0  0  0  0  0  0  0  0  0
   -4.9821   25.3952    2.9829 C   0  0  0  0  0  0  0  0  0  0  0  0
   -3.6484   25.2659    2.9044 N   0  0  0  0  0  0  0  0  0  0  0  0
   -2.9199   25.8018    3.8869 C   0  0  0  0  0  0  0  0  0  0  0  0
   -1.5372   25.6699    3.8360 C   0  0  0  0  0  0  0  0  0  0  0  0
   -0.7064   26.1905    4.8320 C   0  0  0  0  0  0  0  0  0  0  0  0
   -1.2637   26.8578    5.9134 C   0  0  0  0  0  0  0  0  0  0  0  0
   -2.6471   27.0049    5.9853 C   0  0  0  0  0  0  0  0  0  0  0  0
   -3.4892   26.4862    4.9678 C   0  0  0  0  0  0  0  0  0  0  0  0
   -5.7996   24.7932    1.9133 C   0  0  0  0  0  0  0  0  0  0  0  0
   -6.5130   23.6023    2.1163 C   0  0  0  0  0  0  0  0  0  0  0  0
   -7.2709   23.0755    1.0819 C   0  0  0  0  0  0  0  0  0  0  0  0
   -7.3730   23.6418   -0.1368 N   0  0  0  0  0  0  0  0  0  0  0  0
   -6.6841   24.7843   -0.3290 C   0  0  0  0  0  0  0  0  0  0  0  0
   -5.9012   25.3850    0.6445 C   0  0  0  0  0  0  0  0  0  0  0  0
   -5.5546   27.2646    5.9984 N   0  0  0  0  0  0  0  0  0  0  0  0
   -4.8355   27.6939    6.5794 H   0  0  0  0  0  0  0  0  0  0  0  0
   -6.5662   28.2596    5.6061 C   0  0  0  0  0  0  0  0  0  0  0  0
   -7.7555   30.4209    6.3110 C   0  0  0  0  0  0  0  0  0  0  0  0
   -6.8419   29.2718    6.7259 C   0  0  0  0  0  0  0  0  0  0  0  0
   -5.2465   29.8852    7.2989 S   0  0  0  0  0  0  0  0  0  0  0  0
   -5.6030   31.4619    8.0394 C   0  0  0  0  0  0  0  0  0  0  0  0
   -4.8009   29.0138    8.3713 O   0  0  0  0  0  0  0  0  0  0  0  0
   -4.3975   30.1199    6.1464 O   0  0  0  0  0  0  0  0  0  0  0  0
 20 21  1  0  0  0
 21 19  1  0  0  0
 19 17  1  0  0  0
 17  1  1  0  0  0
  1  2  1  0  0  0
  2  3  2  0  0  0
  3 11  1  0  0  0
 11 12  2  0  0  0
 12 13  1  0  0  0
 13 14  2  0  0  0
 14 15  1  0  0  0
 15 16  2  0  0  0
  3  4  1  0  0  0
  4  5  2  0  0  0
  5  6  1  0  0  0
  6  7  2  0  0  0
  7  8  1  0  0  0
  8  9  2  0  0  0
  9 10  1  0  0  0
 21 22  1  0  0  0
 22 23  1  0  0  0
 22 24  2  0  0  0
 22 25  2  0  0  0
 10  1  2  0  0  0
 16 11  1  0  0  0
 10  5  1  0  0  0
 17 18  1  0  0  0
M  END
> <minimizedAffinity>
-8.07619

$$$$
OCNT-2318636


 28 30  0  0  0  0  0  0  0  0999 V2000
   -2.9506   28.5369    5.9823 N   0  0  0  0  0  0  0  0  0  0  0  0
   -2.8109   27.1677    5.9324 C   0  0  0  0  0  0  0  0  0  0  0  0
   -2.0497   26.5622    6.6813 O   0  0  0  0  0  0  0  0  0  0  0  0
   -3.5020   29.0079    5.2699 H   0  0  0  0  0  0  0  0  0  0  0  0
   -3.6068   26.4255    4.9159 C   0  0  0  0  0  0  0  0  0  0  0  0
   -5.0037   26.5154    4.9688 C   0  0  0  0  0  0  0  0  0  0  0  0
   -5.7964   25.8329    4.0377 C   0  0  0  0  0  0  0  0  0  0  0  0
   -5.2170   25.0437    3.0306 C   0  0  0  0  0  0  0  0  0  0  0  0
   -3.8172   24.9609    2.9870 C   0  0  0  0  0  0  0  0  0  0  0  0
   -3.0296   25.6424    3.9172 C   0  0  0  0  0  0  0  0  0  0  0  0
   -1.6970   25.5136    3.8210 F   0  0  0  0  0  0  0  0  0  0  0  0
   -6.0512   24.3255    2.0530 C   0  0  0  0  0  0  0  0  0  0  0  0
   -6.6326   23.0842    2.3718 C   0  0  0  0  0  0  0  0  0  0  0  0
   -7.4236   22.4013    1.4441 C   0  0  0  0  0  0  0  0  0  0  0  0
   -7.6404   22.9553    0.1898 C   0  0  0  0  0  0  0  0  0  0  0  0
   -8.3989   22.3015   -0.6994 F   0  0  0  0  0  0  0  0  0  0  0  0
   -7.0812   24.1783   -0.1547 C   0  0  0  0  0  0  0  0  0  0  0  0
   -6.2895   24.8602    0.7732 C   0  0  0  0  0  0  0  0  0  0  0  0
   -2.1453   29.3528    6.8736 C   0  0  0  0  0  0  0  0  0  0  0  0
   -2.5186   30.8367    6.8444 C   0  0  0  0  0  0  0  0  0  0  0  0
   -3.4519   32.3463    8.6623 C   0  0  0  0  0  0  0  0  0  0  0  0
   -3.1554   32.6495    9.9130 N   0  0  0  0  0  0  0  0  0  0  0  0
   -2.0526   31.9079   10.2365 C   0  0  0  0  0  0  0  0  0  0  0  0
   -1.6602   31.1379    9.1715 C   0  0  0  0  0  0  0  0  0  0  0  0
   -2.5493   31.4281    8.1705 N   0  0  0  0  0  0  0  0  0  0  0  0
   -4.8987   34.3496    8.3066 C   0  0  0  0  0  0  0  0  0  0  0  0
   -4.6143   32.9056    7.8895 C   0  0  0  0  0  0  0  0  0  0  0  0
   -5.8525   32.0334    8.0945 C   0  0  0  0  0  0  0  0  0  0  0  0
 26 27  1  0  0  0
 27 28  1  0  0  0
 27 21  1  0  0  0
 21 22  2  0  0  0
 22 23  1  0  0  0
 23 24  2  0  0  0
 24 25  1  0  0  0
 25 20  1  0  0  0
 20 19  1  0  0  0
 19  1  1  0  0  0
  1  2  1  0  0  0
  2  3  2  0  0  0
  2  5  1  0  0  0
  5  6  1  0  0  0
  6  7  2  0  0  0
  7  8  1  0  0  0
  8 12  1  0  0  0
 12 13  1  0  0  0
 13 14  2  0  0  0
 14 15  1  0  0  0
 15 16  1  0  0  0
 15 17  2  0  0  0
 17 18  1  0  0  0
  8  9  2  0  0  0
  9 10  1  0  0  0
 10 11  1  0  0  0
 25 21  1  0  0  0
 10  5  2  0  0  0
 18 12  2  0  0  0
  1  4  1  0  0  0
M  END
> <minimizedAffinity>
-9.98489

$$$$
OCNT-2318651


 32 36  0  0  0  0  0  0  0  0999 V2000
   -6.1450   25.6364    0.5956 C   0  0  0  0  0  0  0  0  0  0  0  0
   -6.2814   25.8391    2.1074 C   0  0  0  0  0  0  0  0  0  0  0  0
   -5.7945   27.2664    2.4579 C   0  0  0  0  0  0  0  0  0  0  0  0
   -5.6998   27.5035    3.8974 N   0  0  0  0  0  0  0  0  0  0  0  0
   -5.8070   28.8111    4.3600 C   0  0  0  0  0  0  0  0  0  0  0  0
   -5.9320   29.7810    3.6168 O   0  0  0  0  0  0  0  0  0  0  0  0
   -5.2019   26.3820    4.7017 C   0  0  0  0  0  0  0  0  0  0  0  0
   -4.5746   25.2633    3.8509 C   0  0  0  0  0  0  0  0  0  0  0  0
   -5.5253   24.7860    2.8341 N   0  0  0  0  0  0  0  0  0  0  0  0
   -5.9447   23.4524    2.7980 C   0  0  0  0  0  0  0  0  0  0  0  0
   -5.3364   22.6230    1.9651 N   0  0  0  0  0  0  0  0  0  0  0  0
   -5.7191   21.2965    1.8964 C   0  0  0  0  0  0  0  0  0  0  0  0
   -6.6957   20.7562    2.6413 C   0  0  0  0  0  0  0  0  0  0  0  0
   -7.3465   21.5845    3.5261 N   0  0  0  0  0  0  0  0  0  0  0  0
   -8.3516   21.3912    4.4247 C   0  0  0  0  0  0  0  0  0  0  0  0
   -8.6085   22.5203    5.0513 N   0  0  0  0  0  0  0  0  0  0  0  0
   -7.7466   23.4816    4.5573 N   0  0  0  0  0  0  0  0  0  0  0  0
   -7.0098   22.9046    3.6320 C   0  0  0  0  0  0  0  0  0  0  0  0
   -5.7633   29.0548    5.8193 C   0  0  0  0  0  0  0  0  0  0  0  0
   -6.8591   28.7426    6.6265 C   0  0  0  0  0  0  0  0  0  0  0  0
   -6.7922   28.9873    7.9950 C   0  0  0  0  0  0  0  0  0  0  0  0
   -5.6386   29.5529    8.5482 C   0  0  0  0  0  0  0  0  0  0  0  0
   -4.5325   29.8986    7.7488 C   0  0  0  0  0  0  0  0  0  0  0  0
   -4.6197   29.6473    6.3691 C   0  0  0  0  0  0  0  0  0  0  0  0
   -3.3246   30.5036    8.3403 C   0  0  0  0  0  0  0  0  0  0  0  0
   -2.1319   29.7801    8.4911 C   0  0  0  0  0  0  0  0  0  0  0  0
   -2.0586   28.5046    8.0804 F   0  0  0  0  0  0  0  0  0  0  0  0
   -0.9847   30.3465    9.0523 C   0  0  0  0  0  0  0  0  0  0  0  0
   -1.0014   31.6698    9.4830 C   0  0  0  0  0  0  0  0  0  0  0  0
   -2.1683   32.4160    9.3477 C   0  0  0  0  0  0  0  0  0  0  0  0
   -3.3069   31.8350    8.7842 C   0  0  0  0  0  0  0  0  0  0  0  0
   -4.4099   32.5943    8.6866 F   0  0  0  0  0  0  0  0  0  0  0  0
  1  2  1  0  0  0
  2  3  1  0  0  0
  3  4  1  0  0  0
  4  5  1  0  0  0
  5  6  2  0  0  0
  5 19  1  0  0  0
 19 20  1  0  0  0
 20 21  2  0  0  0
 21 22  1  0  0  0
 22 23  2  0  0  0
 23 25  1  0  0  0
 25 26  2  0  0  0
 26 27  1  0  0  0
 26 28  1  0  0  0
 28 29  2  0  0  0
 29 30  1  0  0  0
 30 31  2  0  0  0
 31 32  1  0  0  0
 23 24  1  0  0  0
  4  7  1  0  0  0
  7  8  1  0  0  0
  8  9  1  0  0  0
  9 10  1  0  0  0
 10 11  2  0  0  0
 11 12  1  0  0  0
 12 13  2  0  0  0
 13 14  1  0  0  0
 14 15  1  0  0  0
 15 16  2  0  0  0
 16 17  1  0  0  0
 17 18  2  0  0  0
  9  2  1  0  0  0
 18 10  1  0  0  0
 24 19  2  0  0  0
 18 14  1  0  0  0
 31 25  1  0  0  0
M  END
> <minimizedAffinity>
-10.02663

$$$$
OCNT-2318658


 24 27  0  0  0  0  0  0  0  0999 V2000
   -4.0444   25.2144    3.6132 N   0  0  0  0  0  0  0  0  0  0  0  0
   -2.7876   25.7647    3.5317 C   0  0  0  0  0  0  0  0  0  0  0  0
   -2.4705   26.1263    4.8234 C   0  0  0  0  0  0  0  0  0  0  0  0
   -3.5063   25.7855    5.6463 N   0  0  0  0  0  0  0  0  0  0  0  0
   -4.4561   25.2321    4.9058 N   0  0  0  0  0  0  0  0  0  0  0  0
   -7.4394   22.9526   -0.7017 Cl  0  0  0  0  0  0  0  0  0  0  0  0
   -6.4563   23.6111    0.5465 C   0  0  0  0  0  0  0  0  0  0  0  0
   -6.1958   24.9801    0.5732 C   0  0  0  0  0  0  0  0  0  0  0  0
   -5.3969   25.5225    1.5858 C   0  0  0  0  0  0  0  0  0  0  0  0
   -4.8573   24.6879    2.5756 C   0  0  0  0  0  0  0  0  0  0  0  0
   -5.1265   23.3096    2.5396 C   0  0  0  0  0  0  0  0  0  0  0  0
   -5.9254   22.7744    1.5249 C   0  0  0  0  0  0  0  0  0  0  0  0
   -1.2514   26.7863    5.3618 C   0  0  0  0  0  0  0  0  0  0  0  0
   -1.1708   26.7581    6.7932 O   0  0  0  0  0  0  0  0  0  0  0  0
   -1.2640   27.9453    7.4698 C   0  0  0  0  0  0  0  0  0  0  0  0
   -0.0259   28.5774    7.6946 C   0  0  0  0  0  0  0  0  0  0  0  0
    0.0548   29.7994    8.3684 C   0  0  0  0  0  0  0  0  0  0  0  0
   -1.1222   30.3805    8.7981 C   0  0  0  0  0  0  0  0  0  0  0  0
   -1.3379   31.6483    9.5531 C   0  0  0  0  0  0  0  0  0  0  0  0
   -2.7986   31.9089    9.4795 N   0  0  0  0  0  0  0  0  0  0  0  0
   -3.4325   30.6005    9.1720 C   0  0  0  0  0  0  0  0  0  0  0  0
   -2.3500   29.7645    8.5758 C   0  0  0  0  0  0  0  0  0  0  0  0
   -2.4430   28.5467    7.9184 C   0  0  0  0  0  0  0  0  0  0  0  0
   -2.9450   32.4980    8.6594 H   0  0  0  0  0  0  0  0  0  0  0  0
  6  7  1  0  0  0
  7  8  1  0  0  0
  8  9  2  0  0  0
  9 10  1  0  0  0
 10  1  1  0  0  0
  1  2  1  0  0  0
  2  3  2  0  0  0
  3 13  1  0  0  0
 13 14  1  0  0  0
 14 15  1  0  0  0
 15 16  1  0  0  0
 16 17  2  0  0  0
 17 18  1  0  0  0
 18 19  1  0  0  0
 19 20  1  0  0  0
 20 21  1  0  0  0
 21 22  1  0  0  0
 22 23  1  0  0  0
  3  4  1  0  0  0
  4  5  2  0  0  0
 10 11  2  0  0  0
 11 12  1  0  0  0
 12  7  2  0  0  0
  5  1  1  0  0  0
 23 15  2  0  0  0
 22 18  2  0  0  0
 20 24  1  0  0  0
M  END
> <minimizedAffinity>
-9.14888

$$$$
OCNT-2318671


 28 31  0  0  0  0  0  0  0  0999 V2000
   -3.3944   28.5229    6.0846 N   0  0  0  0  0  0  0  0  0  0  0  0
   -4.6087   27.9950    5.7321 C   0  0  0  0  0  0  0  0  0  0  0  0
   -5.6969   28.2293    6.2400 O   0  0  0  0  0  0  0  0  0  0  0  0
   -2.5947   28.3962    5.4808 H   0  0  0  0  0  0  0  0  0  0  0  0
   -4.2086   32.9114    9.1262 C   0  0  0  0  0  0  0  0  0  0  0  0
   -5.0221   32.5768    8.0467 C   0  0  0  0  0  0  0  0  0  0  0  0
   -4.7751   31.4204    7.2854 C   0  0  0  0  0  0  0  0  0  0  0  0
   -3.6884   30.5812    7.6039 C   0  0  0  0  0  0  0  0  0  0  0  0
   -2.9049   30.9429    8.6980 C   0  0  0  0  0  0  0  0  0  0  0  0
   -3.1313   32.0890    9.4700 C   0  0  0  0  0  0  0  0  0  0  0  0
   -1.9550   29.9691    8.8022 N   0  0  0  0  0  0  0  0  0  0  0  0
   -2.0580   28.9986    7.8853 N   0  0  0  0  0  0  0  0  0  0  0  0
   -3.0978   29.3699    7.1277 C   0  0  0  0  0  0  0  0  0  0  0  0
   -1.2115   29.9069    9.4882 H   0  0  0  0  0  0  0  0  0  0  0  0
   -4.8337   35.1985    9.3172 C   0  0  0  0  0  0  0  0  0  0  0  0
   -4.3562   34.0085    9.9327 O   0  0  0  0  0  0  0  0  0  0  0  0
   -4.5670   27.0705    4.5621 C   0  0  0  0  0  0  0  0  0  0  0  0
   -3.4133   26.3514    4.2281 C   0  0  0  0  0  0  0  0  0  0  0  0
   -3.4202   25.4903    3.1266 C   0  0  0  0  0  0  0  0  0  0  0  0
   -4.5777   25.3319    2.3479 C   0  0  0  0  0  0  0  0  0  0  0  0
   -5.7340   26.0427    2.7000 C   0  0  0  0  0  0  0  0  0  0  0  0
   -5.7301   26.9014    3.8021 C   0  0  0  0  0  0  0  0  0  0  0  0
   -4.5857   24.4018    1.1591 C   0  0  0  0  0  0  0  0  0  0  0  0
   -5.0972   23.0872    1.5052 N   0  0  0  0  0  0  0  0  0  0  0  0
   -5.8708   22.2822    0.7147 C   0  0  0  0  0  0  0  0  0  0  0  0
   -6.0594   21.1375    1.4538 C   0  0  0  0  0  0  0  0  0  0  0  0
   -5.4149   21.2255    2.6604 N   0  0  0  0  0  0  0  0  0  0  0  0
   -4.8428   22.4085    2.6633 C   0  0  0  0  0  0  0  0  0  0  0  0
 15 16  1  0  0  0
 16  5  1  0  0  0
  5  6  2  0  0  0
  6  7  1  0  0  0
  7  8  2  0  0  0
  8  9  1  0  0  0
  9 10  2  0  0  0
  9 11  1  0  0  0
 11 12  1  0  0  0
 12 13  2  0  0  0
 13  1  1  0  0  0
  1  2  1  0  0  0
  2  3  2  0  0  0
  2 17  1  0  0  0
 17 18  1  0  0  0
 18 19  2  0  0  0
 19 20  1  0  0  0
 20 23  1  0  0  0
 23 24  1  0  0  0
 24 25  1  0  0  0
 25 26  2  0  0  0
 26 27  1  0  0  0
 27 28  2  0  0  0
 20 21  2  0  0  0
 21 22  1  0  0  0
 10  5  1  0  0  0
 22 17  2  0  0  0
 13  8  1  0  0  0
 28 24  1  0  0  0
 11 14  1  0  0  0
  1  4  1  0  0  0
M  END
> <minimizedAffinity>
-8.93210

$$$$
OCNT-2318673


 31 34  0  0  0  0  0  0  0  0999 V2000
   -5.6614   27.4195    3.6801 C   0  0  0  0  0  0  0  0  0  0  0  0
   -4.9110   27.1080    4.8235 C   0  0  0  0  0  0  0  0  0  0  0  0
   -4.5192   28.1095    5.7153 C   0  0  0  0  0  0  0  0  0  0  0  0
   -4.8926   29.4284    5.4743 C   0  0  0  0  0  0  0  0  0  0  0  0
   -5.6169   29.7572    4.3308 C   0  0  0  0  0  0  0  0  0  0  0  0
   -6.0065   28.7515    3.4398 C   0  0  0  0  0  0  0  0  0  0  0  0
   -5.1987   25.5927    2.0195 C   0  0  0  0  0  0  0  0  0  0  0  0
   -3.9861   25.7460    1.8969 O   0  0  0  0  0  0  0  0  0  0  0  0
   -6.0149   26.3472    2.8377 N   0  0  0  0  0  0  0  0  0  0  0  0
   -6.9988   26.0994    2.8218 H   0  0  0  0  0  0  0  0  0  0  0  0
   -5.7888   23.1154    1.5195 C   0  0  0  0  0  0  0  0  0  0  0  0
   -6.4572   22.2011    0.6886 C   0  0  0  0  0  0  0  0  0  0  0  0
   -7.1966   22.6374   -0.4136 C   0  0  0  0  0  0  0  0  0  0  0  0
   -7.2793   23.9923   -0.7034 C   0  0  0  0  0  0  0  0  0  0  0  0
   -6.6188   24.9125    0.1092 C   0  0  0  0  0  0  0  0  0  0  0  0
   -5.8654   24.4952    1.2252 C   0  0  0  0  0  0  0  0  0  0  0  0
   -5.1621   21.3805    3.0531 C   0  0  0  0  0  0  0  0  0  0  0  0
   -5.0515   22.7311    2.6131 O   0  0  0  0  0  0  0  0  0  0  0  0
   -4.4801   30.4309    6.3175 O   0  0  0  0  0  0  0  0  0  0  0  0
   -5.0903   30.4040    7.5643 C   0  0  0  0  0  0  0  0  0  0  0  0
   -6.4384   30.5243    7.5800 N   0  0  0  0  0  0  0  0  0  0  0  0
   -7.0064   30.4668    8.7884 C   0  0  0  0  0  0  0  0  0  0  0  0
   -6.3665   30.2853    9.9511 N   0  0  0  0  0  0  0  0  0  0  0  0
   -5.0253   30.1486    9.8658 C   0  0  0  0  0  0  0  0  0  0  0  0
   -4.2998   30.1906    8.6871 C   0  0  0  0  0  0  0  0  0  0  0  0
   -2.8412   30.0333    8.6680 C   0  0  0  0  0  0  0  0  0  0  0  0
   -1.9987   31.0913    9.0515 C   0  0  0  0  0  0  0  0  0  0  0  0
   -0.6090   30.9471    9.0349 C   0  0  0  0  0  0  0  0  0  0  0  0
   -0.0379   29.7416    8.6363 C   0  0  0  0  0  0  0  0  0  0  0  0
   -0.8544   28.6810    8.2535 C   0  0  0  0  0  0  0  0  0  0  0  0
   -2.2441   28.8258    8.2700 C   0  0  0  0  0  0  0  0  0  0  0  0
 17 18  1  0  0  0
 18 11  1  0  0  0
 11 12  2  0  0  0
 12 13  1  0  0  0
 13 14  2  0  0  0
 14 15  1  0  0  0
 15 16  2  0  0  0
 16  7  1  0  0  0
  7  8  2  0  0  0
  7  9  1  0  0  0
  9  1  1  0  0  0
  1  2  1  0  0  0
  2  3  2  0  0  0
  3  4  1  0  0  0
  4 19  1  0  0  0
 19 20  1  0  0  0
 20 21  2  0  0  0
 21 22  1  0  0  0
 22 23  2  0  0  0
 23 24  1  0  0  0
 24 25  2  0  0  0
 25 26  1  0  0  0
 26 27  2  0  0  0
 27 28  1  0  0  0
 28 29  2  0  0  0
 29 30  1  0  0  0
 30 31  2  0  0  0
  4  5  2  0  0  0
  5  6  1  0  0  0
 16 11  1  0  0  0
  6  1  2  0  0  0
 25 20  1  0  0  0
 31 26  1  0  0  0
  9 10  1  0  0  0
M  END
> <minimizedAffinity>
-10.64051

$$$$
OCNT-2318675


 34 39  0  0  0  0  0  0  0  0999 V2000
   -6.0614   24.6145    3.4096 C   0  0  0  0  0  0  0  0  0  0  0  0
   -5.8953   24.3698    2.0308 C   0  0  0  0  0  0  0  0  0  0  0  0
   -6.5046   23.2626    1.4079 C   0  0  0  0  0  0  0  0  0  0  0  0
   -7.2901   22.3786    2.1426 C   0  0  0  0  0  0  0  0  0  0  0  0
   -7.4386   22.6331    3.4927 C   0  0  0  0  0  0  0  0  0  0  0  0
   -6.8470   23.7227    4.1394 C   0  0  0  0  0  0  0  0  0  0  0  0
   -7.2415   23.7020    5.5855 C   0  0  0  0  0  0  0  0  0  0  0  0
   -8.0206   22.4751    5.6988 N   0  0  0  0  0  0  0  0  0  0  0  0
   -8.2165   21.8675    4.4719 C   0  0  0  0  0  0  0  0  0  0  0  0
   -8.8950   20.8918    4.2156 O   0  0  0  0  0  0  0  0  0  0  0  0
   -8.8521   22.1637    6.8554 C   0  0  0  0  0  0  0  0  0  0  0  0
   -8.0471   22.0735    8.1483 C   0  0  0  0  0  0  0  0  0  0  0  0
   -8.9663   21.6606    9.2877 C   0  0  0  0  0  0  0  0  0  0  0  0
  -10.1369   22.6068    9.4199 C   0  0  0  0  0  0  0  0  0  0  0  0
  -10.6559   22.8615   10.5026 O   0  0  0  0  0  0  0  0  0  0  0  0
  -10.6224   23.1508    8.2577 N   0  0  0  0  0  0  0  0  0  0  0  0
   -9.9850   23.1887    7.0379 C   0  0  0  0  0  0  0  0  0  0  0  0
  -10.3372   23.9952    6.1799 O   0  0  0  0  0  0  0  0  0  0  0  0
  -11.3629   23.8290    8.3774 H   0  0  0  0  0  0  0  0  0  0  0  0
   -4.1691   27.1001    5.1570 C   0  0  0  0  0  0  0  0  0  0  0  0
   -4.3136   25.7770    4.8135 C   0  0  0  0  0  0  0  0  0  0  0  0
   -5.4458   25.7359    4.0259 N   0  0  0  0  0  0  0  0  0  0  0  0
   -5.9500   26.9833    3.9040 N   0  0  0  0  0  0  0  0  0  0  0  0
   -5.1841   27.8179    4.5902 N   0  0  0  0  0  0  0  0  0  0  0  0
   -1.0354   26.4330    5.3759 C   0  0  0  0  0  0  0  0  0  0  0  0
   -1.7218   27.4585    6.1190 N   0  0  0  0  0  0  0  0  0  0  0  0
   -1.1320   28.3044    7.0340 C   0  0  0  0  0  0  0  0  0  0  0  0
    0.1776   28.4515    7.5124 C   0  0  0  0  0  0  0  0  0  0  0  0
    0.4025   29.4508    8.4673 C   0  0  0  0  0  0  0  0  0  0  0  0
   -0.6349   30.2649    8.9224 C   0  0  0  0  0  0  0  0  0  0  0  0
   -1.9354   30.1025    8.4329 C   0  0  0  0  0  0  0  0  0  0  0  0
   -2.1787   29.1064    7.4758 C   0  0  0  0  0  0  0  0  0  0  0  0
   -3.3509   28.7647    6.8599 N   0  0  0  0  0  0  0  0  0  0  0  0
   -3.0638   27.7685    6.0438 C   0  0  0  0  0  0  0  0  0  0  0  0
 25 26  1  0  0  0
 26 27  1  0  0  0
 27 28  2  0  0  0
 28 29  1  0  0  0
 29 30  2  0  0  0
 30 31  1  0  0  0
 31 32  2  0  0  0
 32 33  1  0  0  0
 33 34  2  0  0  0
 34 20  1  0  0  0
 20 21  2  0  0  0
 21 22  1  0  0  0
 22  1  1  0  0  0
  1  2  2  0  0  0
  2  3  1  0  0  0
  3  4  2  0  0  0
  4  5  1  0  0  0
  5  6  2  0  0  0
  6  7  1  0  0  0
  7  8  1  0  0  0
  8 11  1  0  0  0
 11 12  1  0  0  0
 12 13  1  0  0  0
 13 14  1  0  0  0
 14 15  2  0  0  0
 14 16  1  0  0  0
 16 17  1  0  0  0
 17 18  2  0  0  0
  8  9  1  0  0  0
  9 10  2  0  0  0
 22 23  1  0  0  0
 23 24  2  0  0  0
 34 26  1  0  0  0
 24 20  1  0  0  0
 32 27  1  0  0  0
  6  1  1  0  0  0
 17 11  1  0  0  0
  9  5  1  0  0  0
 16 19  1  0  0  0
M  END
> <minimizedAffinity>
-11.47828

$$$$
OCNT-2318678


 23 26  0  0  0  0  0  0  0  0999 V2000
   -2.5202   27.8545    7.4288 N   0  0  0  0  0  0  0  0  0  0  0  0
   -3.4601   27.9584    7.0476 H   0  0  0  0  0  0  0  0  0  0  0  0
   -1.6866   28.9609    6.9528 C   0  0  0  0  0  0  0  0  0  0  0  0
   -2.0371   30.2340    7.6848 C   0  0  0  0  0  0  0  0  0  0  0  0
   -3.1575   31.0345    7.5053 C   0  0  0  0  0  0  0  0  0  0  0  0
   -3.3005   32.1703    8.3055 C   0  0  0  0  0  0  0  0  0  0  0  0
   -2.3344   32.4888    9.2720 C   0  0  0  0  0  0  0  0  0  0  0  0
   -1.2122   31.6775    9.4502 C   0  0  0  0  0  0  0  0  0  0  0  0
   -1.0728   30.5586    8.6446 C   0  0  0  0  0  0  0  0  0  0  0  0
    0.0229   29.5371    8.6799 C   0  0  0  0  0  0  0  0  0  0  0  0
   -0.1801   28.8054    7.3400 C   0  0  0  0  0  0  0  0  0  0  0  0
    0.6701   29.3910    6.3395 O   0  0  0  0  0  0  0  0  0  0  0  0
    0.5133   28.9127    5.5083 H   0  0  0  0  0  0  0  0  0  0  0  0
   -1.9942   26.5588    7.0009 C   0  0  0  0  0  0  0  0  0  0  0  0
   -4.4206   25.8337    2.6593 C   0  0  0  0  0  0  0  0  0  0  0  0
   -3.4057   26.0218    3.6663 N   0  0  0  0  0  0  0  0  0  0  0  0
   -3.5985   26.1891    5.0043 C   0  0  0  0  0  0  0  0  0  0  0  0
   -2.3454   26.3476    5.5695 C   0  0  0  0  0  0  0  0  0  0  0  0
   -1.4709   26.2293    4.4611 C   0  0  0  0  0  0  0  0  0  0  0  0
   -2.1116   26.0433    3.3057 N   0  0  0  0  0  0  0  0  0  0  0  0
    0.0780   26.3215    4.5415 C   0  0  0  0  0  0  0  0  0  0  0  0
    0.9138   25.2065    3.9650 C   0  0  0  0  0  0  0  0  0  0  0  0
    0.8693   26.5385    3.2768 C   0  0  0  0  0  0  0  0  0  0  0  0
 15 16  1  0  0  0
 16 17  1  0  0  0
 17 18  2  0  0  0
 18 14  1  0  0  0
 14  1  1  0  0  0
  1  3  1  0  0  0
  3  4  1  0  0  0
  4  5  2  0  0  0
  5  6  1  0  0  0
  6  7  2  0  0  0
  7  8  1  0  0  0
  8  9  2  0  0  0
  9 10  1  0  0  0
 10 11  1  0  0  0
 11 12  1  0  0  0
 18 19  1  0  0  0
 19 21  1  0  0  0
 21 22  1  0  0  0
 22 23  1  0  0  0
 19 20  2  0  0  0
 20 16  1  0  0  0
 11  3  1  0  0  0
 23 21  1  0  0  0
  9  4  1  0  0  0
  1  2  1  0  0  0
 12 13  1  0  0  0
M  END
> <minimizedAffinity>
-8.74020

$$$$
OCNT-2318684


 25 28  0  0  0  0  0  0  0  0999 V2000
   -6.0905   30.8633    6.8919 N   0  0  0  0  0  0  0  0  0  0  0  0
   -6.5141   31.7757    7.0894 H   0  0  0  0  0  0  0  0  0  0  0  0
   -7.1600   29.9642    6.4642 C   0  0  0  0  0  0  0  0  0  0  0  0
   -5.7278   27.1273    3.5146 C   0  0  0  0  0  0  0  0  0  0  0  0
   -6.0909   26.6999    4.8000 C   0  0  0  0  0  0  0  0  0  0  0  0
   -6.5493   27.6195    5.7497 C   0  0  0  0  0  0  0  0  0  0  0  0
   -6.6448   28.9809    5.4393 C   0  0  0  0  0  0  0  0  0  0  0  0
   -6.2976   29.4040    4.1520 C   0  0  0  0  0  0  0  0  0  0  0  0
   -5.8383   28.4890    3.1977 C   0  0  0  0  0  0  0  0  0  0  0  0
   -4.0264   24.7966    1.3653 C   0  0  0  0  0  0  0  0  0  0  0  0
   -4.0023   25.6307    2.4577 C   0  0  0  0  0  0  0  0  0  0  0  0
   -5.2604   26.1913    2.5460 N   0  0  0  0  0  0  0  0  0  0  0  0
   -5.9674   25.6510    1.4908 C   0  0  0  0  0  0  0  0  0  0  0  0
   -5.2520   24.8155    0.7688 N   0  0  0  0  0  0  0  0  0  0  0  0
   -5.4894   30.4252    8.1571 C   0  0  0  0  0  0  0  0  0  0  0  0
   -3.9957   30.5344    8.1007 C   0  0  0  0  0  0  0  0  0  0  0  0
   -3.1009   30.7028    9.1386 C   0  0  0  0  0  0  0  0  0  0  0  0
   -1.8743   30.7391    8.5467 N   0  0  0  0  0  0  0  0  0  0  0  0
   -0.5900   30.8991    9.1893 C   0  0  0  0  0  0  0  0  0  0  0  0
    0.3677   29.7141    9.0171 C   0  0  0  0  0  0  0  0  0  0  0  0
    0.0895   28.7460    7.8627 C   0  0  0  0  0  0  0  0  0  0  0  0
    0.0175   29.3514    6.4551 C   0  0  0  0  0  0  0  0  0  0  0  0
   -0.8834   30.5748    6.2620 C   0  0  0  0  0  0  0  0  0  0  0  0
   -2.0449   30.5972    7.1915 C   0  0  0  0  0  0  0  0  0  0  0  0
   -3.3197   30.4734    6.8931 N   0  0  0  0  0  0  0  0  0  0  0  0
 10 11  2  0  0  0
 11 12  1  0  0  0
 12  4  1  0  0  0
  4  5  1  0  0  0
  5  6  2  0  0  0
  6  7  1  0  0  0
  7  3  1  0  0  0
  3  1  1  0  0  0
  1 15  1  0  0  0
 15 16  1  0  0  0
 16 17  2  0  0  0
 17 18  1  0  0  0
 18 19  1  0  0  0
 19 20  1  0  0  0
 20 21  1  0  0  0
 21 22  1  0  0  0
 22 23  1  0  0  0
 23 24  1  0  0  0
 24 25  2  0  0  0
  7  8  2  0  0  0
  8  9  1  0  0  0
 12 13  1  0  0  0
 13 14  2  0  0  0
 14 10  1  0  0  0
  9  4  2  0  0  0
 25 16  1  0  0  0
 24 18  1  0  0  0
  1  2  1  0  0  0
M  END
> <minimizedAffinity>
-9.00822

$$$$
OCNT-2328318


 16 18  0  0  0  0  0  0  0  0999 V2000
    0.3919   28.6335    7.5860 C   0  0  0  0  0  0  0  0  0  0  0  0
    0.2640   29.8609    8.2329 C   0  0  0  0  0  0  0  0  0  0  0  0
   -0.9913   30.3153    8.6692 C   0  0  0  0  0  0  0  0  0  0  0  0
   -2.1403   29.5374    8.4196 C   0  0  0  0  0  0  0  0  0  0  0  0
   -1.9880   28.2927    7.7826 C   0  0  0  0  0  0  0  0  0  0  0  0
   -0.7334   27.8477    7.3646 C   0  0  0  0  0  0  0  0  0  0  0  0
   -3.5123   29.9822    8.9093 C   0  0  0  0  0  0  0  0  0  0  0  0
   -3.5653   31.4672    9.3000 C   0  0  0  0  0  0  0  0  0  0  0  0
   -2.3600   31.8435   10.1497 C   0  0  0  0  0  0  0  0  0  0  0  0
   -1.0763   31.6609    9.3468 C   0  0  0  0  0  0  0  0  0  0  0  0
   -4.6337   29.6924    7.9184 C   0  0  0  0  0  0  0  0  0  0  0  0
   -4.7588   30.3344    6.7826 N   0  0  0  0  0  0  0  0  0  0  0  0
   -5.9637   29.7318    6.1478 C   0  0  0  0  0  0  0  0  0  0  0  0
   -6.6679   28.9240    7.2409 C   0  0  0  0  0  0  0  0  0  0  0  0
   -5.5931   28.7419    8.1870 N   0  0  0  0  0  0  0  0  0  0  0  0
   -5.8357   28.5764    9.1563 H   0  0  0  0  0  0  0  0  0  0  0  0
  1  2  1  0  0  0
  2  3  2  0  0  0
  3  4  1  0  0  0
  4  5  2  0  0  0
  5  6  1  0  0  0
  4  7  1  0  0  0
  7 11  1  0  0  0
 11 12  2  0  0  0
 12 13  1  0  0  0
 13 14  1  0  0  0
 14 15  1  0  0  0
  7  8  1  0  0  0
  8  9  1  0  0  0
  9 10  1  0  0  0
  6  1  2  0  0  0
 15 11  1  0  0  0
 10  3  1  0  0  0
 15 16  1  0  0  0
M  END
> <minimizedAffinity>
-7.62618

$$$$
OCNT-2328323


 20 20  0  0  0  0  0  0  0  0999 V2000
   -1.8902   26.6767    6.6297 C   0  0  0  0  0  0  0  0  0  0  0  0
   -0.4589   26.7503    6.5173 O   0  0  0  0  0  0  0  0  0  0  0  0
   -0.2472   27.6856    6.3295 H   0  0  0  0  0  0  0  0  0  0  0  0
   -2.4957   26.6731    5.2098 C   0  0  0  0  0  0  0  0  0  0  0  0
   -3.7546   27.4192    5.0928 N   0  0  0  0  0  0  0  0  0  0  0  0
   -3.5351   28.3684    4.7835 H   0  0  0  0  0  0  0  0  0  0  0  0
   -3.9881   26.2737    2.9880 C   0  0  0  0  0  0  0  0  0  0  0  0
   -4.7717   26.8626    4.1779 C   0  0  0  0  0  0  0  0  0  0  0  0
   -5.7419   27.9230    3.6362 C   0  0  0  0  0  0  0  0  0  0  0  0
   -5.5595   25.7229    4.8491 C   0  0  0  0  0  0  0  0  0  0  0  0
   -2.3851   27.8407    7.5006 C   0  0  0  0  0  0  0  0  0  0  0  0
   -1.9236   29.0755    6.9196 O   0  0  0  0  0  0  0  0  0  0  0  0
   -2.1275   30.1278    7.7745 C   0  0  0  0  0  0  0  0  0  0  0  0
   -3.3368   30.8264    7.7329 C   0  0  0  0  0  0  0  0  0  0  0  0
   -3.5248   31.9198    8.5763 C   0  0  0  0  0  0  0  0  0  0  0  0
   -5.0156   32.7790    8.5395 Cl  0  0  0  0  0  0  0  0  0  0  0  0
   -2.5132   32.3261    9.4484 C   0  0  0  0  0  0  0  0  0  0  0  0
   -1.2954   31.6396    9.4713 C   0  0  0  0  0  0  0  0  0  0  0  0
   -1.0990   30.5439    8.6285 C   0  0  0  0  0  0  0  0  0  0  0  0
    0.4171   29.7198    8.6746 Cl  0  0  0  0  0  0  0  0  0  0  0  0
  7  8  1  0  0  0
  8  9  1  0  0  0
  8 10  1  0  0  0
  8  5  1  0  0  0
  5  4  1  0  0  0
  4  1  1  0  0  0
  1  2  1  0  0  0
  1 11  1  0  0  0
 11 12  1  0  0  0
 12 13  1  0  0  0
 13 14  1  0  0  0
 14 15  2  0  0  0
 15 16  1  0  0  0
 15 17  1  0  0  0
 17 18  2  0  0  0
 18 19  1  0  0  0
 19 20  1  0  0  0
 19 13  2  0  0  0
  5  6  1  0  0  0
  2  3  1  0  0  0
M  END
> <minimizedAffinity>
-7.04823

$$$$
OCNT-2328329


 22 23  0  0  0  0  0  0  0  0999 V2000
   -3.4206   32.7894    8.6853 C   0  0  0  0  0  0  0  0  0  0  0  0
   -4.0490   32.1854    7.5964 C   0  0  0  0  0  0  0  0  0  0  0  0
   -3.5027   31.0506    6.9777 C   0  0  0  0  0  0  0  0  0  0  0  0
   -2.2778   30.5240    7.4300 C   0  0  0  0  0  0  0  0  0  0  0  0
   -1.7458   29.4389    6.8196 N   0  0  0  0  0  0  0  0  0  0  0  0
   -0.5781   28.9471    7.2846 C   0  0  0  0  0  0  0  0  0  0  0  0
    0.1101   29.4843    8.3536 C   0  0  0  0  0  0  0  0  0  0  0  0
   -0.4338   30.5954    8.9854 C   0  0  0  0  0  0  0  0  0  0  0  0
   -1.6452   31.1377    8.5326 C   0  0  0  0  0  0  0  0  0  0  0  0
   -2.2212   32.2609    9.1547 C   0  0  0  0  0  0  0  0  0  0  0  0
   -4.9279   34.5915    8.3061 C   0  0  0  0  0  0  0  0  0  0  0  0
   -4.0743   33.8785    9.1921 O   0  0  0  0  0  0  0  0  0  0  0  0
   -4.1203   30.4610    5.8400 N   0  0  0  0  0  0  0  0  0  0  0  0
   -3.4600   29.7590    5.4828 H   0  0  0  0  0  0  0  0  0  0  0  0
   -5.4862   29.9534    5.9983 C   0  0  0  0  0  0  0  0  0  0  0  0
   -5.9904   29.5201    4.6202 C   0  0  0  0  0  0  0  0  0  0  0  0
   -5.5058   28.7507    6.9623 C   0  0  0  0  0  0  0  0  0  0  0  0
   -6.2246   29.0640    8.2820 C   0  0  0  0  0  0  0  0  0  0  0  0
   -5.2900   29.0721    9.4937 C   0  0  0  0  0  0  0  0  0  0  0  0
   -5.7301   28.1640   10.5452 N   0  0  0  0  0  0  0  0  0  0  0  0
   -6.6303   28.4648   10.9144 H   0  0  0  0  0  0  0  0  0  0  0  0
   -5.0753   28.2061   11.3248 H   0  0  0  0  0  0  0  0  0  0  0  0
 11 12  1  0  0  0
 12  1  1  0  0  0
  1  2  2  0  0  0
  2  3  1  0  0  0
  3 13  1  0  0  0
 13 15  1  0  0  0
 15 16  1  0  0  0
 15 17  1  0  0  0
 17 18  1  0  0  0
 18 19  1  0  0  0
 19 20  1  0  0  0
  3  4  2  0  0  0
  4  5  1  0  0  0
  5  6  2  0  0  0
  6  7  1  0  0  0
  7  8  2  0  0  0
  8  9  1  0  0  0
  9 10  2  0  0  0
 10  1  1  0  0  0
  9  4  1  0  0  0
 13 14  1  0  0  0
 20 21  1  0  0  0
 20 22  1  0  0  0
M  END
> <minimizedAffinity>
-7.63270

$$$$
OCNT-2328331


 16 17  0  0  0  0  0  0  0  0999 V2000
    0.9965   29.3051    8.3725 Cl  0  0  0  0  0  0  0  0  0  0  0  0
   -0.5622   29.9826    8.7116 C   0  0  0  0  0  0  0  0  0  0  0  0
   -0.6086   31.3422    9.0458 C   0  0  0  0  0  0  0  0  0  0  0  0
   -1.8325   31.9739    9.2596 C   0  0  0  0  0  0  0  0  0  0  0  0
   -3.0150   31.2498    9.1313 C   0  0  0  0  0  0  0  0  0  0  0  0
   -2.9699   29.8923    8.7988 C   0  0  0  0  0  0  0  0  0  0  0  0
   -4.4718   29.0426    8.6477 Cl  0  0  0  0  0  0  0  0  0  0  0  0
   -1.7455   29.2287    8.5829 C   0  0  0  0  0  0  0  0  0  0  0  0
   -1.7293   27.8313    8.3196 N   0  0  0  0  0  0  0  0  0  0  0  0
   -0.9910   27.3727    8.8448 H   0  0  0  0  0  0  0  0  0  0  0  0
   -1.7643   27.3642    7.0386 C   0  0  0  0  0  0  0  0  0  0  0  0
   -2.7762   27.2757    6.2250 N   0  0  0  0  0  0  0  0  0  0  0  0
   -2.1960   26.7108    4.9788 C   0  0  0  0  0  0  0  0  0  0  0  0
   -0.7932   26.2229    5.3445 C   0  0  0  0  0  0  0  0  0  0  0  0
   -0.5501   26.9360    6.5826 N   0  0  0  0  0  0  0  0  0  0  0  0
   -0.0254   26.4116    7.2733 H   0  0  0  0  0  0  0  0  0  0  0  0
  1  2  1  0  0  0
  2  3  1  0  0  0
  3  4  2  0  0  0
  4  5  1  0  0  0
  5  6  2  0  0  0
  6  7  1  0  0  0
  6  8  1  0  0  0
  8  9  1  0  0  0
  9 11  1  0  0  0
 11 12  2  0  0  0
 12 13  1  0  0  0
 13 14  1  0  0  0
 14 15  1  0  0  0
  8  2  2  0  0  0
 15 11  1  0  0  0
  9 10  1  0  0  0
 15 16  1  0  0  0
M  END
> <minimizedAffinity>
-7.01688

$$$$
OCNT-2328333


 20 20  0  0  0  0  0  0  0  0999 V2000
   -4.4268   30.2840    6.2040 C   0  0  0  0  0  0  0  0  0  0  0  0
   -5.6337   29.7305    6.9684 C   0  0  0  0  0  0  0  0  0  0  0  0
   -5.1877   28.8125    7.9821 O   0  0  0  0  0  0  0  0  0  0  0  0
   -5.9672   28.2454    8.1582 H   0  0  0  0  0  0  0  0  0  0  0  0
   -6.5958   28.9794    6.0259 C   0  0  0  0  0  0  0  0  0  0  0  0
   -6.3215   27.5340    6.1181 N   0  0  0  0  0  0  0  0  0  0  0  0
   -7.2004   27.0454    6.3043 H   0  0  0  0  0  0  0  0  0  0  0  0
   -5.6811   26.9250    4.9348 C   0  0  0  0  0  0  0  0  0  0  0  0
   -6.2803   25.5110    4.8065 C   0  0  0  0  0  0  0  0  0  0  0  0
   -4.1600   26.7900    5.1107 C   0  0  0  0  0  0  0  0  0  0  0  0
   -5.9942   27.7058    3.6479 C   0  0  0  0  0  0  0  0  0  0  0  0
   -4.0611   31.5536    6.7736 O   0  0  0  0  0  0  0  0  0  0  0  0
    0.2792   29.4483    7.5472 C   0  0  0  0  0  0  0  0  0  0  0  0
   -0.8287   30.3548    7.9959 C   0  0  0  0  0  0  0  0  0  0  0  0
   -0.7276   31.0571    9.2044 C   0  0  0  0  0  0  0  0  0  0  0  0
   -1.7493   31.9210    9.6107 C   0  0  0  0  0  0  0  0  0  0  0  0
   -2.8739   32.1020    8.8047 C   0  0  0  0  0  0  0  0  0  0  0  0
   -4.1167   33.1713    9.3411 Cl  0  0  0  0  0  0  0  0  0  0  0  0
   -2.9651   31.4282    7.5851 C   0  0  0  0  0  0  0  0  0  0  0  0
   -1.9536   30.5511    7.1854 C   0  0  0  0  0  0  0  0  0  0  0  0
 13 14  1  0  0  0
 14 15  1  0  0  0
 15 16  2  0  0  0
 16 17  1  0  0  0
 17 18  1  0  0  0
 17 19  2  0  0  0
 19 12  1  0  0  0
 12  1  1  0  0  0
  1  2  1  0  0  0
  2  3  1  0  0  0
  2  5  1  0  0  0
  5  6  1  0  0  0
  6  8  1  0  0  0
  8  9  1  0  0  0
  8 10  1  0  0  0
  8 11  1  0  0  0
 19 20  1  0  0  0
 20 14  2  0  0  0
  3  4  1  0  0  0
  6  7  1  0  0  0
M  END
> <minimizedAffinity>
-7.18010

$$$$
OCNT-2328337


 25 25  0  0  0  0  0  0  0  0999 V2000
   -4.5289   26.8478    4.6317 C   0  0  0  0  0  0  0  0  0  0  0  0
   -4.4958   27.6214    5.7249 C   0  0  0  0  0  0  0  0  0  0  0  0
   -3.2361   27.7990    6.5008 C   0  0  0  0  0  0  0  0  0  0  0  0
   -3.2162   28.4577    7.5369 O   0  0  0  0  0  0  0  0  0  0  0  0
   -1.9881   27.1600    5.9852 C   0  0  0  0  0  0  0  0  0  0  0  0
   -2.0121   26.4260    4.8572 C   0  0  0  0  0  0  0  0  0  0  0  0
   -0.8173   25.7669    4.2230 C   0  0  0  0  0  0  0  0  0  0  0  0
   -3.2847   26.2196    4.1051 C   0  0  0  0  0  0  0  0  0  0  0  0
   -3.2933   25.5458    3.0786 O   0  0  0  0  0  0  0  0  0  0  0  0
   -5.8486   27.6822    2.8933 C   0  0  0  0  0  0  0  0  0  0  0  0
   -5.7188   26.7052    3.9237 O   0  0  0  0  0  0  0  0  0  0  0  0
   -5.6714   28.1895    6.2074 O   0  0  0  0  0  0  0  0  0  0  0  0
   -5.7385   29.5841    5.9170 C   0  0  0  0  0  0  0  0  0  0  0  0
   -0.7594   27.3879    6.8408 C   0  0  0  0  0  0  0  0  0  0  0  0
    0.0061   28.6425    6.4078 C   0  0  0  0  0  0  0  0  0  0  0  0
    0.7398   29.3346    7.5609 C   0  0  0  0  0  0  0  0  0  0  0  0
   -0.1350   29.7604    8.7446 C   0  0  0  0  0  0  0  0  0  0  0  0
   -1.1835   30.8354    8.4417 C   0  0  0  0  0  0  0  0  0  0  0  0
   -1.3916   31.8884    9.5350 C   0  0  0  0  0  0  0  0  0  0  0  0
   -2.8243   32.4277    9.5907 C   0  0  0  0  0  0  0  0  0  0  0  0
   -3.7784   31.6804    8.6516 C   0  0  0  0  0  0  0  0  0  0  0  0
   -5.2358   31.6503    9.1177 C   0  0  0  0  0  0  0  0  0  0  0  0
   -5.7436   30.2742    9.5220 C   0  0  0  0  0  0  0  0  0  0  0  0
   -4.6399   29.4263    9.8174 O   0  0  0  0  0  0  0  0  0  0  0  0
   -4.1018   29.3556    9.0104 H   0  0  0  0  0  0  0  0  0  0  0  0
 10 11  1  0  0  0
 11  1  1  0  0  0
  1  2  2  0  0  0
  2 12  1  0  0  0
 12 13  1  0  0  0
  2  3  1  0  0  0
  3  4  2  0  0  0
  3  5  1  0  0  0
  5 14  1  0  0  0
 14 15  1  0  0  0
 15 16  1  0  0  0
 16 17  1  0  0  0
 17 18  1  0  0  0
 18 19  1  0  0  0
 19 20  1  0  0  0
 20 21  1  0  0  0
 21 22  1  0  0  0
 22 23  1  0  0  0
 23 24  1  0  0  0
  5  6  2  0  0  0
  6  7  1  0  0  0
  6  8  1  0  0  0
  8  9  2  0  0  0
  8  1  1  0  0  0
 24 25  1  0  0  0
M  END
> <minimizedAffinity>
-6.97018

$$$$
OCNT-2328344


 23 23  0  0  0  0  0  0  0  0999 V2000
   -2.8200   27.9316    6.5903 C   0  0  0  0  0  0  0  0  0  0  0  0
   -3.1134   27.1033    5.4931 C   0  0  0  0  0  0  0  0  0  0  0  0
   -2.1045   26.3821    4.8579 C   0  0  0  0  0  0  0  0  0  0  0  0
   -2.5245   25.3869    3.5072 Cl  0  0  0  0  0  0  0  0  0  0  0  0
   -0.7829   26.4344    5.3227 C   0  0  0  0  0  0  0  0  0  0  0  0
    0.2724   25.8105    4.6323 N   0  0  0  0  0  0  0  0  0  0  0  0
   -0.4831   27.3054    6.3793 C   0  0  0  0  0  0  0  0  0  0  0  0
   -1.4842   28.0485    7.0291 C   0  0  0  0  0  0  0  0  0  0  0  0
   -0.0444   25.0386    4.0470 H   0  0  0  0  0  0  0  0  0  0  0  0
    1.0705   25.5624    5.2067 H   0  0  0  0  0  0  0  0  0  0  0  0
   -4.0529   28.7243    8.5687 N   0  0  0  0  0  0  0  0  0  0  0  0
   -3.9900   28.6490    7.1981 C   0  0  0  0  0  0  0  0  0  0  0  0
   -4.8539   29.1393    6.4763 O   0  0  0  0  0  0  0  0  0  0  0  0
   -3.2636   28.3798    9.1056 H   0  0  0  0  0  0  0  0  0  0  0  0
   -5.1096   29.4393    9.2605 C   0  0  0  0  0  0  0  0  0  0  0  0
   -4.6449   30.8178    9.7726 C   0  0  0  0  0  0  0  0  0  0  0  0
   -4.2003   31.7244    8.6856 N   0  0  0  0  0  0  0  0  0  0  0  0
   -2.1430   31.8566   10.0913 C   0  0  0  0  0  0  0  0  0  0  0  0
   -3.1105   32.5970    9.1717 C   0  0  0  0  0  0  0  0  0  0  0  0
   -5.3335   32.5355    8.1969 C   0  0  0  0  0  0  0  0  0  0  0  0
   -4.9905   34.0209    8.1241 C   0  0  0  0  0  0  0  0  0  0  0  0
   -1.2263   28.8979    8.0771 O   0  0  0  0  0  0  0  0  0  0  0  0
    0.1263   29.2690    8.3224 C   0  0  0  0  0  0  0  0  0  0  0  0
 18 19  1  0  0  0
 19 17  1  0  0  0
 17 20  1  0  0  0
 20 21  1  0  0  0
 17 16  1  0  0  0
 16 15  1  0  0  0
 15 11  1  0  0  0
 11 12  1  0  0  0
 12 13  2  0  0  0
 12  1  1  0  0  0
  1  2  1  0  0  0
  2  3  2  0  0  0
  3  4  1  0  0  0
  3  5  1  0  0  0
  5  6  1  0  0  0
  5  7  2  0  0  0
  7  8  1  0  0  0
  8 22  1  0  0  0
 22 23  1  0  0  0
  8  1  2  0  0  0
 11 14  1  0  0  0
  6  9  1  0  0  0
  6 10  1  0  0  0
M  END
> <minimizedAffinity>
-6.75989

$$$$
OCNT-2328345


 22 25  0  0  0  0  0  0  0  0999 V2000
   -5.7150   23.6011    3.2953 C   0  0  0  0  0  0  0  0  0  0  0  0
   -4.8609   22.3003    3.0374 C   0  0  0  0  0  0  0  0  0  0  0  0
   -5.7144   21.1950    2.3365 C   0  0  0  0  0  0  0  0  0  0  0  0
   -7.1611   21.7025    2.1027 C   0  0  0  0  0  0  0  0  0  0  0  0
   -7.0194   22.9665    1.2719 C   0  0  0  0  0  0  0  0  0  0  0  0
   -6.2196   23.9744    1.8764 C   0  0  0  0  0  0  0  0  0  0  0  0
   -5.9167   25.1144    1.1368 C   0  0  0  0  0  0  0  0  0  0  0  0
   -6.4592   25.2788   -0.1429 C   0  0  0  0  0  0  0  0  0  0  0  0
   -7.2841   24.2991   -0.7034 C   0  0  0  0  0  0  0  0  0  0  0  0
   -7.5600   23.1294   -0.0008 C   0  0  0  0  0  0  0  0  0  0  0  0
   -7.6856   22.0852    3.4754 C   0  0  0  0  0  0  0  0  0  0  0  0
   -6.9089   23.0717    4.1399 C   0  0  0  0  0  0  0  0  0  0  0  0
   -7.2350   23.4045    5.4534 C   0  0  0  0  0  0  0  0  0  0  0  0
   -8.3468   22.8147    6.0646 C   0  0  0  0  0  0  0  0  0  0  0  0
   -9.1257   21.8759    5.3813 C   0  0  0  0  0  0  0  0  0  0  0  0
   -8.7924   21.4987    4.0830 C   0  0  0  0  0  0  0  0  0  0  0  0
   -4.8217   24.6521    4.0058 C   0  0  0  0  0  0  0  0  0  0  0  0
   -3.3996   24.8590    3.4455 C   0  0  0  0  0  0  0  0  0  0  0  0
   -3.0141   26.3438    3.4908 C   0  0  0  0  0  0  0  0  0  0  0  0
   -2.6440   27.0909    5.7773 C   0  0  0  0  0  0  0  0  0  0  0  0
   -3.5660   27.0498    4.6491 N   0  0  0  0  0  0  0  0  0  0  0  0
   -3.7822   28.0081    4.3734 H   0  0  0  0  0  0  0  0  0  0  0  0
 20 21  1  0  0  0
 21 19  1  0  0  0
 19 18  1  0  0  0
 18 17  1  0  0  0
 17  1  1  0  0  0
  1  2  1  0  0  0
  2  3  1  0  0  0
  3  4  1  0  0  0
  4  5  1  0  0  0
  5  6  1  0  0  0
  6  7  2  0  0  0
  7  8  1  0  0  0
  8  9  2  0  0  0
  9 10  1  0  0  0
  4 11  1  0  0  0
 11 12  1  0  0  0
 12 13  2  0  0  0
 13 14  1  0  0  0
 14 15  2  0  0  0
 15 16  1  0  0  0
  6  1  1  0  0  0
 16 11  2  0  0  0
 12  1  1  0  0  0
 10  5  2  0  0  0
 21 22  1  0  0  0
M  END
> <minimizedAffinity>
-9.29730

$$$$
OCNT-2328368


 21 22  0  0  0  0  0  0  0  0999 V2000
   -5.0088   29.9545    7.5444 N   0  0  0  0  0  0  0  0  0  0  0  0
   -4.9122   32.3025    8.5216 C   0  0  0  0  0  0  0  0  0  0  0  0
   -4.6856   31.3861    7.3076 C   0  0  0  0  0  0  0  0  0  0  0  0
   -3.2548   31.5604    6.7356 C   0  0  0  0  0  0  0  0  0  0  0  0
   -2.3495   31.8368    7.8193 O   0  0  0  0  0  0  0  0  0  0  0  0
   -1.3286   30.9265    7.8217 C   0  0  0  0  0  0  0  0  0  0  0  0
   -0.9200   30.3574    6.6179 C   0  0  0  0  0  0  0  0  0  0  0  0
    0.1415   29.4529    6.6104 C   0  0  0  0  0  0  0  0  0  0  0  0
    0.7963   29.1358    7.8022 C   0  0  0  0  0  0  0  0  0  0  0  0
    0.3948   29.7271    9.0017 C   0  0  0  0  0  0  0  0  0  0  0  0
   -0.6670   30.6313    9.0117 C   0  0  0  0  0  0  0  0  0  0  0  0
   -4.9387   29.5522    8.9663 C   0  0  0  0  0  0  0  0  0  0  0  0
   -6.2515   29.0036    9.5472 C   0  0  0  0  0  0  0  0  0  0  0  0
   -6.2489   29.0219   11.3311 Cl  0  0  0  0  0  0  0  0  0  0  0  0
   -6.2983   29.5953    6.9182 C   0  0  0  0  0  0  0  0  0  0  0  0
   -6.1600   28.8921    5.5863 C   0  0  0  0  0  0  0  0  0  0  0  0
   -6.0717   27.4941    5.5195 C   0  0  0  0  0  0  0  0  0  0  0  0
   -5.9532   26.8514    4.2857 C   0  0  0  0  0  0  0  0  0  0  0  0
   -5.9260   27.5973    3.1084 C   0  0  0  0  0  0  0  0  0  0  0  0
   -6.0196   28.9866    3.1615 C   0  0  0  0  0  0  0  0  0  0  0  0
   -6.1399   29.6310    4.3929 C   0  0  0  0  0  0  0  0  0  0  0  0
  2  3  1  0  0  0
  3  4  1  0  0  0
  4  5  1  0  0  0
  5  6  1  0  0  0
  6  7  2  0  0  0
  7  8  1  0  0  0
  8  9  2  0  0  0
  9 10  1  0  0  0
 10 11  2  0  0  0
  3  1  1  0  0  0
  1 12  1  0  0  0
 12 13  1  0  0  0
 13 14  1  0  0  0
  1 15  1  0  0  0
 15 16  1  0  0  0
 16 17  2  0  0  0
 17 18  1  0  0  0
 18 19  2  0  0  0
 19 20  1  0  0  0
 20 21  2  0  0  0
 11  6  1  0  0  0
 21 16  1  0  0  0
M  END
> <minimizedAffinity>
-8.01828

$$$$
OCNT-2328369


 41 44  0  0  0  0  0  0  0  0999 V2000
   -5.6544   25.1459    2.2312 C   0  0  0  0  0  0  0  0  0  0  0  0
   -5.6786   24.7330    0.9579 N   0  0  0  0  0  0  0  0  0  0  0  0
   -6.3755   23.6103    0.6876 C   0  0  0  0  0  0  0  0  0  0  0  0
   -7.0657   22.8887    1.6315 C   0  0  0  0  0  0  0  0  0  0  0  0
   -7.8668   21.4399    1.1690 Cl  0  0  0  0  0  0  0  0  0  0  0  0
   -7.0158   23.3995    2.9191 C   0  0  0  0  0  0  0  0  0  0  0  0
   -6.3025   24.5081    3.2202 N   0  0  0  0  0  0  0  0  0  0  0  0
   -4.9222   26.2552    2.6267 N   0  0  0  0  0  0  0  0  0  0  0  0
   -5.0348   27.0107    1.9630 H   0  0  0  0  0  0  0  0  0  0  0  0
   -0.3186   25.8408    4.4558 C   0  0  0  0  0  0  0  0  0  0  0  0
   -1.7307   26.3383    4.6175 C   0  0  0  0  0  0  0  0  0  0  0  0
   -2.6555   26.0573    3.5861 C   0  0  0  0  0  0  0  0  0  0  0  0
   -3.9791   26.5025    3.6328 C   0  0  0  0  0  0  0  0  0  0  0  0
   -4.3793   27.1937    4.7872 C   0  0  0  0  0  0  0  0  0  0  0  0
   -3.4773   27.5074    5.8058 C   0  0  0  0  0  0  0  0  0  0  0  0
   -2.1439   27.0709    5.7512 C   0  0  0  0  0  0  0  0  0  0  0  0
   -1.1826   27.4311    6.8809 C   0  0  0  0  0  0  0  0  0  0  0  0
   -0.1387   28.4483    6.3880 C   0  0  0  0  0  0  0  0  0  0  0  0
    0.6192   29.0579    7.5633 C   0  0  0  0  0  0  0  0  0  0  0  0
   -0.2336   29.7349    8.5413 N   0  0  0  0  0  0  0  0  0  0  0  0
   -1.6520   29.3973    8.4392 C   0  0  0  0  0  0  0  0  0  0  0  0
   -1.8789   27.9105    8.1746 C   0  0  0  0  0  0  0  0  0  0  0  0
   -0.1230   30.7465    8.4606 H   0  0  0  0  0  0  0  0  0  0  0  0
   -5.6726   27.6488    4.9208 O   0  0  0  0  0  0  0  0  0  0  0  0
   -5.7206   29.0830    5.0600 C   0  0  0  0  0  0  0  0  0  0  0  0
   -6.1367   29.7236    3.7369 C   0  0  0  0  0  0  0  0  0  0  0  0
   -6.7568   29.3873    6.1387 C   0  0  0  0  0  0  0  0  0  0  0  0
   -7.6556   22.8053    4.0230 N   0  0  0  0  0  0  0  0  0  0  0  0
   -8.1185   21.9720    3.6549 H   0  0  0  0  0  0  0  0  0  0  0  0
   -7.1071   22.5148    5.2956 C   0  0  0  0  0  0  0  0  0  0  0  0
   -5.7292   22.2762    5.4407 C   0  0  0  0  0  0  0  0  0  0  0  0
   -5.1861   21.8802    6.6641 C   0  0  0  0  0  0  0  0  0  0  0  0
   -6.0167   21.6801    7.7604 C   0  0  0  0  0  0  0  0  0  0  0  0
   -7.3910   21.8834    7.6386 C   0  0  0  0  0  0  0  0  0  0  0  0
   -7.9357   22.3091    6.4179 C   0  0  0  0  0  0  0  0  0  0  0  0
   -9.6946   22.5713    6.2470 S   0  0  0  0  0  0  0  0  0  0  0  0
   -9.8922   23.9032    5.7036 O   0  0  0  0  0  0  0  0  0  0  0  0
  -10.1785   21.3993    5.5360 O   0  0  0  0  0  0  0  0  0  0  0  0
  -10.4454   22.5713    7.8766 C   0  0  0  0  0  0  0  0  0  0  0  0
  -11.1945   23.8706    8.1655 C   0  0  0  0  0  0  0  0  0  0  0  0
  -11.4080   21.3881    8.0050 C   0  0  0  0  0  0  0  0  0  0  0  0
 10 11  1  0  0  0
 11 12  1  0  0  0
 12 13  2  0  0  0
 13  8  1  0  0  0
  8  1  1  0  0  0
  1  2  2  0  0  0
  2  3  1  0  0  0
  3  4  2  0  0  0
  4  5  1  0  0  0
  4  6  1  0  0  0
  6 28  1  0  0  0
 28 30  1  0  0  0
 30 31  2  0  0  0
 31 32  1  0  0  0
 32 33  2  0  0  0
 33 34  1  0  0  0
 34 35  2  0  0  0
 35 36  1  0  0  0
 36 37  2  0  0  0
 36 38  2  0  0  0
 36 39  1  0  0  0
 39 40  1  0  0  0
 39 41  1  0  0  0
  6  7  2  0  0  0
 13 14  1  0  0  0
 14 24  1  0  0  0
 24 25  1  0  0  0
 25 26  1  0  0  0
 25 27  1  0  0  0
 14 15  2  0  0  0
 15 16  1  0  0  0
 16 17  1  0  0  0
 17 18  1  0  0  0
 18 19  1  0  0  0
 19 20  1  0  0  0
 20 21  1  0  0  0
 21 22  1  0  0  0
 16 11  2  0  0  0
 22 17  1  0  0  0
  7  1  1  0  0  0
 35 30  1  0  0  0
  8  9  1  0  0  0
 28 29  1  0  0  0
 20 23  1  0  0  0
M  END
> <minimizedAffinity>
-10.14519

$$$$
