OCNT-2316431


 24 26  0  0  0  0  0  0  0  0999 V2000
   -2.5163   26.8625    5.3960 C   0  0  0  0  0  0  0  0  0  0  0  0
   -1.4399   26.2957    5.2323 O   0  0  0  0  0  0  0  0  0  0  0  0
   -2.7007   27.9708    6.2125 N   0  0  0  0  0  0  0  0  0  0  0  0
   -3.9737   28.6844    6.4326 C   0  0  0  0  0  0  0  0  0  0  0  0
   -3.6902   29.8719    7.3733 C   0  0  0  0  0  0  0  0  0  0  0  0
   -2.2434   29.6618    7.7094 C   0  0  0  0  0  0  0  0  0  0  0  0
   -1.4642   30.4072    8.5854 C   0  0  0  0  0  0  0  0  0  0  0  0
   -0.1251   30.0535    8.7504 C   0  0  0  0  0  0  0  0  0  0  0  0
    0.4134   28.9684    8.0462 C   0  0  0  0  0  0  0  0  0  0  0  0
   -0.3811   28.2200    7.1720 C   0  0  0  0  0  0  0  0  0  0  0  0
   -1.7110   28.5738    7.0137 C   0  0  0  0  0  0  0  0  0  0  0  0
   -3.9527   31.2136    6.6948 C   0  0  0  0  0  0  0  0  0  0  0  0
   -4.2678   31.0018    5.3217 O   0  0  0  0  0  0  0  0  0  0  0  0
   -4.4753   31.8743    4.9418 H   0  0  0  0  0  0  0  0  0  0  0  0
   -3.7744   26.3707    4.6955 C   0  0  0  0  0  0  0  0  0  0  0  0
   -3.5825   25.0761    3.9026 C   0  0  0  0  0  0  0  0  0  0  0  0
   -7.3073   23.4410    0.8716 C   0  0  0  0  0  0  0  0  0  0  0  0
   -6.4783   23.7065    2.0831 C   0  0  0  0  0  0  0  0  0  0  0  0
   -5.3102   24.3699    2.1847 C   0  0  0  0  0  0  0  0  0  0  0  0
   -4.6128   25.0598    1.0544 C   0  0  0  0  0  0  0  0  0  0  0  0
   -4.8101   24.4094    3.4875 N   0  0  0  0  0  0  0  0  0  0  0  0
   -5.6324   23.8298    4.4544 C   0  0  0  0  0  0  0  0  0  0  0  0
   -5.5064   23.8336    5.6678 O   0  0  0  0  0  0  0  0  0  0  0  0
   -7.0162   23.1077    3.6315 S   0  0  0  0  0  0  0  0  0  0  0  0
 17 18  1  0  0  0
 18 19  2  0  0  0
 19 20  1  0  0  0
 19 21  1  0  0  0
 21 16  1  0  0  0
 16 15  1  0  0  0
 15  1  1  0  0  0
  1  2  2  0  0  0
  1  3  1  0  0  0
  3  4  1  0  0  0
  4  5  1  0  0  0
  5 12  1  0  0  0
 12 13  1  0  0  0
  5  6  1  0  0  0
  6  7  2  0  0  0
  7  8  1  0  0  0
  8  9  2  0  0  0
  9 10  1  0  0  0
 10 11  2  0  0  0
 21 22  1  0  0  0
 22 23  2  0  0  0
 22 24  1  0  0  0
 24 18  1  0  0  0
 11  3  1  0  0  0
 11  6  1  0  0  0
 13 14  1  0  0  0
M  END
> <minimizedAffinity>
-8.65922

$$$$
OCNT-2316444


 27 30  0  0  0  0  0  0  0  0999 V2000
   -4.7393   30.2338    7.5275 N   0  0  0  0  0  0  0  0  0  0  0  0
   -7.1416   31.0460    7.2988 O   0  0  0  0  0  0  0  0  0  0  0  0
   -6.3708   29.8337    7.4312 S   0  0  0  0  0  0  0  0  0  0  0  0
   -6.6787   28.8610    8.4504 O   0  0  0  0  0  0  0  0  0  0  0  0
   -6.4090   29.0196    5.9530 N   0  0  0  0  0  0  0  0  0  0  0  0
   -5.6466   29.6770    4.8577 C   0  0  0  0  0  0  0  0  0  0  0  0
   -6.0485   29.0566    3.5193 C   0  0  0  0  0  0  0  0  0  0  0  0
   -5.9219   27.5539    3.5338 C   0  0  0  0  0  0  0  0  0  0  0  0
   -5.8446   26.8459    2.3259 C   0  0  0  0  0  0  0  0  0  0  0  0
   -5.7402   25.4541    2.3297 C   0  0  0  0  0  0  0  0  0  0  0  0
   -5.7379   24.7593    3.5356 C   0  0  0  0  0  0  0  0  0  0  0  0
   -5.8426   25.4545    4.7438 C   0  0  0  0  0  0  0  0  0  0  0  0
   -5.9443   26.8542    4.7544 C   0  0  0  0  0  0  0  0  0  0  0  0
   -6.0243   27.5884    6.0788 C   0  0  0  0  0  0  0  0  0  0  0  0
   -3.9696   29.5246    8.5797 C   0  0  0  0  0  0  0  0  0  0  0  0
   -2.4980   29.2940    8.3091 C   0  0  0  0  0  0  0  0  0  0  0  0
   -1.5285   30.1787    8.8093 C   0  0  0  0  0  0  0  0  0  0  0  0
   -0.1707   29.9632    8.5647 C   0  0  0  0  0  0  0  0  0  0  0  0
    0.2406   28.8632    7.8148 C   0  0  0  0  0  0  0  0  0  0  0  0
   -0.7148   27.9893    7.3129 C   0  0  0  0  0  0  0  0  0  0  0  0
   -0.3579   26.9019    6.5730 O   0  0  0  0  0  0  0  0  0  0  0  0
   -2.0716   28.1973    7.5476 C   0  0  0  0  0  0  0  0  0  0  0  0
    0.6100   26.8726    6.5033 H   0  0  0  0  0  0  0  0  0  0  0  0
   -4.3938   31.6662    7.3827 C   0  0  0  0  0  0  0  0  0  0  0  0
   -4.7282   32.4247    8.6347 C   0  0  0  0  0  0  0  0  0  0  0  0
   -3.6441   33.1292    9.4124 C   0  0  0  0  0  0  0  0  0  0  0  0
   -4.6754   33.9346    8.6727 C   0  0  0  0  0  0  0  0  0  0  0  0
  2  3  2  0  0  0
  3  4  2  0  0  0
  3  5  1  0  0  0
  5  6  1  0  0  0
  6  7  1  0  0  0
  7  8  1  0  0  0
  8  9  2  0  0  0
  9 10  1  0  0  0
 10 11  2  0  0  0
 11 12  1  0  0  0
 12 13  2  0  0  0
 13 14  1  0  0  0
  3  1  1  0  0  0
  1 15  1  0  0  0
 15 16  1  0  0  0
 16 17  2  0  0  0
 17 18  1  0  0  0
 18 19  2  0  0  0
 19 20  1  0  0  0
 20 21  1  0  0  0
 20 22  2  0  0  0
  1 24  1  0  0  0
 24 25  1  0  0  0
 25 26  1  0  0  0
 26 27  1  0  0  0
 14  5  1  0  0  0
 22 16  1  0  0  0
 27 25  1  0  0  0
 13  8  1  0  0  0
 21 23  1  0  0  0
M  END
> <minimizedAffinity>
-9.82241

$$$$
OCNT-2316459


 34 36  0  0  0  0  0  0  0  0999 V2000
   -4.9536   29.3427    7.8798 N   0  0  0  0  0  0  0  0  0  0  0  0
   -3.7148   28.9859    7.4185 C   0  0  0  0  0  0  0  0  0  0  0  0
   -3.1006   29.5950    6.5537 O   0  0  0  0  0  0  0  0  0  0  0  0
   -3.2628   27.8468    8.0231 N   0  0  0  0  0  0  0  0  0  0  0  0
   -5.5199   28.5799    8.2272 H   0  0  0  0  0  0  0  0  0  0  0  0
   -3.5815   27.7696    8.9765 H   0  0  0  0  0  0  0  0  0  0  0  0
   -5.6689   30.4781    7.2890 C   0  0  0  0  0  0  0  0  0  0  0  0
   -6.4180   30.8048    9.7021 C   0  0  0  0  0  0  0  0  0  0  0  0
   -6.0659   31.4837    8.3844 C   0  0  0  0  0  0  0  0  0  0  0  0
   -6.9024   29.9809    6.4980 C   0  0  0  0  0  0  0  0  0  0  0  0
   -6.5604   29.0053    5.3990 C   0  0  0  0  0  0  0  0  0  0  0  0
   -6.2124   29.4582    4.1205 C   0  0  0  0  0  0  0  0  0  0  0  0
   -5.8865   28.5478    3.1109 C   0  0  0  0  0  0  0  0  0  0  0  0
   -5.8969   27.1718    3.3644 C   0  0  0  0  0  0  0  0  0  0  0  0
   -5.5677   26.1896    2.2787 C   0  0  0  0  0  0  0  0  0  0  0  0
   -6.2673   26.7175    4.6365 C   0  0  0  0  0  0  0  0  0  0  0  0
   -6.5931   27.6265    5.6457 C   0  0  0  0  0  0  0  0  0  0  0  0
   -1.8905   27.3742    7.8223 C   0  0  0  0  0  0  0  0  0  0  0  0
   -1.7633   26.8078    6.4104 C   0  0  0  0  0  0  0  0  0  0  0  0
   -2.8653   26.2078    5.7833 C   0  0  0  0  0  0  0  0  0  0  0  0
   -2.7577   25.7086    4.4837 C   0  0  0  0  0  0  0  0  0  0  0  0
   -1.5480   25.7970    3.7937 C   0  0  0  0  0  0  0  0  0  0  0  0
   -0.4288   26.3833    4.3966 C   0  0  0  0  0  0  0  0  0  0  0  0
   -0.5435   26.8725    5.7088 C   0  0  0  0  0  0  0  0  0  0  0  0
    0.8860   26.4747    3.6622 C   0  0  0  0  0  0  0  0  0  0  0  0
    1.6324   27.5474    4.0372 F   0  0  0  0  0  0  0  0  0  0  0  0
    1.6768   25.3818    3.8537 F   0  0  0  0  0  0  0  0  0  0  0  0
    0.7273   26.5766    2.3112 F   0  0  0  0  0  0  0  0  0  0  0  0
   -0.8797   28.4502    8.1159 C   0  0  0  0  0  0  0  0  0  0  0  0
    0.4229   28.4511    7.8958 N   0  0  0  0  0  0  0  0  0  0  0  0
    0.9525   29.6012    8.4404 N   0  0  0  0  0  0  0  0  0  0  0  0
   -0.0376   30.2878    8.9592 C   0  0  0  0  0  0  0  0  0  0  0  0
   -1.1977   29.6056    8.7889 N   0  0  0  0  0  0  0  0  0  0  0  0
   -2.1312   29.8707    9.0922 H   0  0  0  0  0  0  0  0  0  0  0  0
  8  9  1  0  0  0
  9  7  1  0  0  0
  7 10  1  0  0  0
 10 11  1  0  0  0
 11 12  1  0  0  0
 12 13  2  0  0  0
 13 14  1  0  0  0
 14 15  1  0  0  0
 14 16  2  0  0  0
 16 17  1  0  0  0
  7  1  1  0  0  0
  1  2  1  0  0  0
  2  3  2  0  0  0
  2  4  1  0  0  0
  4 18  1  0  0  0
 18 19  1  0  0  0
 19 20  2  0  0  0
 20 21  1  0  0  0
 21 22  2  0  0  0
 22 23  1  0  0  0
 23 25  1  0  0  0
 25 26  1  0  0  0
 25 27  1  0  0  0
 25 28  1  0  0  0
 23 24  2  0  0  0
 18 29  1  0  0  0
 29 30  2  0  0  0
 30 31  1  0  0  0
 31 32  2  0  0  0
 32 33  1  0  0  0
 17 11  2  0  0  0
 24 19  1  0  0  0
 33 29  1  0  0  0
  1  5  1  0  0  0
  4  6  1  0  0  0
 33 34  1  0  0  0
M  END
> <minimizedAffinity>
-10.87471

$$$$
OCNT-2316493


 22 23  0  0  0  0  0  0  0  0999 V2000
   -4.1083   32.6557    8.5647 S   0  0  0  0  0  0  0  0  0  0  0  0
   -3.9943   33.5798    9.6693 O   0  0  0  0  0  0  0  0  0  0  0  0
   -4.2923   33.0913    7.1996 O   0  0  0  0  0  0  0  0  0  0  0  0
   -0.8605   30.1349    7.7626 C   0  0  0  0  0  0  0  0  0  0  0  0
   -0.6136   30.6134    9.0384 C   0  0  0  0  0  0  0  0  0  0  0  0
   -1.6276   31.5019    9.4976 C   0  0  0  0  0  0  0  0  0  0  0  0
   -2.6200   31.6884    8.5563 C   0  0  0  0  0  0  0  0  0  0  0  0
   -2.3258   30.7747    7.1437 S   0  0  0  0  0  0  0  0  0  0  0  0
   -0.0226   29.2125    7.0127 C   0  0  0  0  0  0  0  0  0  0  0  0
    0.7872   29.5534    6.1573 O   0  0  0  0  0  0  0  0  0  0  0  0
   -0.8456   27.1171    6.3549 C   0  0  0  0  0  0  0  0  0  0  0  0
   -0.2478   27.9163    7.3751 O   0  0  0  0  0  0  0  0  0  0  0  0
   -5.3800   31.6006    8.8948 N   0  0  0  0  0  0  0  0  0  0  0  0
   -5.3150   31.2372    9.8464 H   0  0  0  0  0  0  0  0  0  0  0  0
   -5.7652   30.6214    7.8549 C   0  0  0  0  0  0  0  0  0  0  0  0
   -7.1555   30.9998    7.3364 C   0  0  0  0  0  0  0  0  0  0  0  0
   -7.6053   30.0612    6.2120 C   0  0  0  0  0  0  0  0  0  0  0  0
   -6.8423   28.7353    6.1879 C   0  0  0  0  0  0  0  0  0  0  0  0
   -6.6282   28.2489    7.5426 N   0  0  0  0  0  0  0  0  0  0  0  0
   -5.7488   29.1337    8.3379 C   0  0  0  0  0  0  0  0  0  0  0  0
   -6.1619   28.9411    9.8000 C   0  0  0  0  0  0  0  0  0  0  0  0
   -6.2327   27.3082    7.5261 H   0  0  0  0  0  0  0  0  0  0  0  0
 11 12  1  0  0  0
 12  9  1  0  0  0
  9 10  2  0  0  0
  9  4  1  0  0  0
  4  5  2  0  0  0
  5  6  1  0  0  0
  6  7  2  0  0  0
  7  1  1  0  0  0
  1  2  2  0  0  0
  1  3  2  0  0  0
  1 13  1  0  0  0
 13 15  1  0  0  0
 15 16  1  0  0  0
 16 17  1  0  0  0
 17 18  1  0  0  0
 18 19  1  0  0  0
 19 20  1  0  0  0
 20 21  1  0  0  0
  7  8  1  0  0  0
  8  4  1  0  0  0
 20 15  1  0  0  0
 13 14  1  0  0  0
 19 22  1  0  0  0
M  END
> <minimizedAffinity>
-7.52590

$$$$
OCNT-2316497


 23 25  0  0  0  0  0  0  0  0999 V2000
   -4.0821   32.6840    8.2689 C   0  0  0  0  0  0  0  0  0  0  0  0
   -4.1017   33.4168    9.4984 O   0  0  0  0  0  0  0  0  0  0  0  0
   -3.2001   33.7711    9.6092 H   0  0  0  0  0  0  0  0  0  0  0  0
   -2.8553   31.8372    8.2988 C   0  0  0  0  0  0  0  0  0  0  0  0
   -1.9722   31.4366    9.2826 C   0  0  0  0  0  0  0  0  0  0  0  0
   -0.9819   30.6424    8.6492 C   0  0  0  0  0  0  0  0  0  0  0  0
    0.1659   29.9453    9.0652 C   0  0  0  0  0  0  0  0  0  0  0  0
    0.9175   29.2530    8.1046 C   0  0  0  0  0  0  0  0  0  0  0  0
    0.5406   29.2519    6.7586 C   0  0  0  0  0  0  0  0  0  0  0  0
   -0.5970   29.9413    6.3254 C   0  0  0  0  0  0  0  0  0  0  0  0
   -1.3223   30.6183    7.3028 C   0  0  0  0  0  0  0  0  0  0  0  0
   -2.4513   31.3474    7.0861 O   0  0  0  0  0  0  0  0  0  0  0  0
   -5.4028   31.8929    8.1370 C   0  0  0  0  0  0  0  0  0  0  0  0
   -5.4969   31.1402    6.8735 N   0  0  0  0  0  0  0  0  0  0  0  0
   -5.8943   31.7512    6.1601 H   0  0  0  0  0  0  0  0  0  0  0  0
   -6.0924   29.1475    8.2674 C   0  0  0  0  0  0  0  0  0  0  0  0
   -6.3011   29.9084    6.9512 C   0  0  0  0  0  0  0  0  0  0  0  0
   -6.1915   29.0859    5.6817 C   0  0  0  0  0  0  0  0  0  0  0  0
   -6.0990   29.7326    4.4400 C   0  0  0  0  0  0  0  0  0  0  0  0
   -5.9978   28.9924    3.2658 C   0  0  0  0  0  0  0  0  0  0  0  0
   -5.9913   27.6132    3.3636 C   0  0  0  0  0  0  0  0  0  0  0  0
   -6.0743   26.9461    4.5330 N   0  0  0  0  0  0  0  0  0  0  0  0
   -6.1701   27.6943    5.6587 C   0  0  0  0  0  0  0  0  0  0  0  0
 16 17  1  0  0  0
 17 14  1  0  0  0
 14 13  1  0  0  0
 13  1  1  0  0  0
  1  2  1  0  0  0
  1  4  1  0  0  0
  4  5  2  0  0  0
  5  6  1  0  0  0
  6  7  2  0  0  0
  7  8  1  0  0  0
  8  9  2  0  0  0
  9 10  1  0  0  0
 10 11  2  0  0  0
 11 12  1  0  0  0
 17 18  1  0  0  0
 18 19  1  0  0  0
 19 20  2  0  0  0
 20 21  1  0  0  0
 21 22  2  0  0  0
 22 23  1  0  0  0
 12  4  1  0  0  0
 23 18  2  0  0  0
 11  6  1  0  0  0
 14 15  1  0  0  0
  2  3  1  0  0  0
M  END
> <minimizedAffinity>
-8.74463

$$$$
OCNT-2316507


 25 28  0  0  0  0  0  0  0  0999 V2000
   -5.2176   28.2164    5.7249 N   0  0  0  0  0  0  0  0  0  0  0  0
   -6.1491   28.9085    6.4608 C   0  0  0  0  0  0  0  0  0  0  0  0
   -7.3584   28.7023    6.4791 O   0  0  0  0  0  0  0  0  0  0  0  0
   -5.5942   29.9099    7.2421 N   0  0  0  0  0  0  0  0  0  0  0  0
   -6.3758   31.0249    7.7824 C   0  0  0  0  0  0  0  0  0  0  0  0
   -5.0348   31.7734    7.9753 C   0  0  0  0  0  0  0  0  0  0  0  0
   -4.9820   33.2296    7.4783 C   0  0  0  0  0  0  0  0  0  0  0  0
   -4.6776   34.0545    8.7249 C   0  0  0  0  0  0  0  0  0  0  0  0
   -3.8171   33.1225    9.5605 C   0  0  0  0  0  0  0  0  0  0  0  0
   -4.5516   31.7934    9.4366 C   0  0  0  0  0  0  0  0  0  0  0  0
   -4.4246   30.7521    6.9555 C   0  0  0  0  0  0  0  0  0  0  0  0
   -4.2453   28.3869    5.9163 H   0  0  0  0  0  0  0  0  0  0  0  0
   -2.9771   30.1507    7.2205 C   0  0  0  0  0  0  0  0  0  0  0  0
   -1.8377   30.7189    6.6153 C   0  0  0  0  0  0  0  0  0  0  0  0
   -0.5541   30.2017    6.8129 C   0  0  0  0  0  0  0  0  0  0  0  0
   -0.3699   29.0921    7.6298 C   0  0  0  0  0  0  0  0  0  0  0  0
   -1.4670   28.5045    8.2487 C   0  0  0  0  0  0  0  0  0  0  0  0
   -2.7465   29.0286    8.0453 C   0  0  0  0  0  0  0  0  0  0  0  0
   -5.7192   26.1348    2.9084 C   0  0  0  0  0  0  0  0  0  0  0  0
   -5.3263   27.3427    3.4286 C   0  0  0  0  0  0  0  0  0  0  0  0
   -5.4994   27.2061    4.8285 C   0  0  0  0  0  0  0  0  0  0  0  0
   -5.9755   25.9936    5.1241 N   0  0  0  0  0  0  0  0  0  0  0  0
   -6.1103   25.3236    3.9251 O   0  0  0  0  0  0  0  0  0  0  0  0
   -4.5261   24.8289    1.1690 C   0  0  0  0  0  0  0  0  0  0  0  0
   -5.7986   25.5717    1.5420 C   0  0  0  0  0  0  0  0  0  0  0  0
 24 25  1  0  0  0
 25 19  1  0  0  0
 19 20  2  0  0  0
 20 21  1  0  0  0
 21  1  1  0  0  0
  1  2  1  0  0  0
  2  3  2  0  0  0
  2  4  1  0  0  0
  4  5  1  0  0  0
  5  6  1  0  0  0
  6  7  1  0  0  0
  7  8  1  0  0  0
  8  9  1  0  0  0
  9 10  1  0  0  0
  6 11  1  0  0  0
 11 13  1  0  0  0
 13 14  2  0  0  0
 14 15  1  0  0  0
 15 16  2  0  0  0
 16 17  1  0  0  0
 17 18  2  0  0  0
 21 22  2  0  0  0
 22 23  1  0  0  0
 23 19  1  0  0  0
 11  4  1  0  0  0
 18 13  1  0  0  0
 10  6  1  0  0  0
  1 12  1  0  0  0
M  END
> <minimizedAffinity>
-9.63452

$$$$
OCNT-2316527


 24 27  0  0  0  0  0  0  0  0999 V2000
   -6.0546   29.7704    4.0651 O   0  0  0  0  0  0  0  0  0  0  0  0
   -6.3032   28.7780    4.7512 C   0  0  0  0  0  0  0  0  0  0  0  0
   -6.1166   27.4783    4.2565 N   0  0  0  0  0  0  0  0  0  0  0  0
   -5.5087   27.3633    2.9324 C   0  0  0  0  0  0  0  0  0  0  0  0
   -5.8778   26.0643    2.2235 C   0  0  0  0  0  0  0  0  0  0  0  0
   -5.5816   24.8479    3.1080 C   0  0  0  0  0  0  0  0  0  0  0  0
   -6.3336   25.0105    4.4370 C   0  0  0  0  0  0  0  0  0  0  0  0
   -5.9616   26.3165    5.1304 C   0  0  0  0  0  0  0  0  0  0  0  0
   -6.0027   23.5779    2.4885 N   0  0  0  0  0  0  0  0  0  0  0  0
   -5.3812   22.8353    2.8114 H   0  0  0  0  0  0  0  0  0  0  0  0
   -6.0373   23.6835    1.0277 C   0  0  0  0  0  0  0  0  0  0  0  0
   -5.9649   22.2540    0.4310 C   0  0  0  0  0  0  0  0  0  0  0  0
   -7.0860   22.6907   -0.5358 C   0  0  0  0  0  0  0  0  0  0  0  0
   -7.5066   23.7151    0.5402 C   0  0  0  0  0  0  0  0  0  0  0  0
   -6.8397   28.8959    6.1757 C   0  0  0  0  0  0  0  0  0  0  0  0
   -5.9622   29.7029    7.1101 C   0  0  0  0  0  0  0  0  0  0  0  0
   -6.4784   30.8247    7.7670 C   0  0  0  0  0  0  0  0  0  0  0  0
   -5.6786   31.5843    8.6291 C   0  0  0  0  0  0  0  0  0  0  0  0
   -4.3326   31.2261    8.8373 C   0  0  0  0  0  0  0  0  0  0  0  0
   -3.4343   31.8853    9.6627 N   0  0  0  0  0  0  0  0  0  0  0  0
   -2.2685   31.2843    9.6048 C   0  0  0  0  0  0  0  0  0  0  0  0
   -2.1658   29.9099    8.5902 S   0  0  0  0  0  0  0  0  0  0  0  0
   -3.8247   30.1117    8.1661 C   0  0  0  0  0  0  0  0  0  0  0  0
   -4.6176   29.3393    7.2995 C   0  0  0  0  0  0  0  0  0  0  0  0
  1  2  2  0  0  0
  2 15  1  0  0  0
 15 16  1  0  0  0
 16 17  2  0  0  0
 17 18  1  0  0  0
 18 19  2  0  0  0
 19 20  1  0  0  0
 20 21  2  0  0  0
 21 22  1  0  0  0
 22 23  1  0  0  0
 23 24  2  0  0  0
  2  3  1  0  0  0
  3  4  1  0  0  0
  4  5  1  0  0  0
  5  6  1  0  0  0
  6  9  1  0  0  0
  9 11  1  0  0  0
 11 12  1  0  0  0
 12 13  1  0  0  0
 13 14  1  0  0  0
  6  7  1  0  0  0
  7  8  1  0  0  0
 24 16  1  0  0  0
  8  3  1  0  0  0
 23 19  1  0  0  0
 14 11  1  0  0  0
  9 10  1  0  0  0
M  END
> <minimizedAffinity>
-8.89480

$$$$
OCNT-2316535


 25 28  0  0  0  0  0  0  0  0999 V2000
   -2.5594   26.0599    6.1869 O   0  0  0  0  0  0  0  0  0  0  0  0
   -3.1080   27.0313    5.6818 C   0  0  0  0  0  0  0  0  0  0  0  0
   -2.8339   28.3360    6.0358 N   0  0  0  0  0  0  0  0  0  0  0  0
   -3.1961   29.0366    5.3973 H   0  0  0  0  0  0  0  0  0  0  0  0
   -1.7242   28.6832    6.9148 C   0  0  0  0  0  0  0  0  0  0  0  0
   -0.3712   28.5550    6.1400 C   0  0  0  0  0  0  0  0  0  0  0  0
    0.7901   29.3375    6.5770 N   0  0  0  0  0  0  0  0  0  0  0  0
    1.1744   29.1609    7.9749 C   0  0  0  0  0  0  0  0  0  0  0  0
    0.1030   29.4047    9.0523 C   0  0  0  0  0  0  0  0  0  0  0  0
   -0.9902   30.3719    8.6511 C   0  0  0  0  0  0  0  0  0  0  0  0
   -1.1126   31.6002    9.3179 C   0  0  0  0  0  0  0  0  0  0  0  0
   -2.1241   32.4926    8.9723 C   0  0  0  0  0  0  0  0  0  0  0  0
   -3.0232   32.1644    7.9628 C   0  0  0  0  0  0  0  0  0  0  0  0
   -2.9123   30.9449    7.2899 C   0  0  0  0  0  0  0  0  0  0  0  0
   -1.8947   30.0318    7.6129 C   0  0  0  0  0  0  0  0  0  0  0  0
    1.5847   29.1294    5.9741 H   0  0  0  0  0  0  0  0  0  0  0  0
   -4.1233   26.8970    4.5868 C   0  0  0  0  0  0  0  0  0  0  0  0
   -5.0890   27.8571    4.5593 N   0  0  0  0  0  0  0  0  0  0  0  0
   -5.9809   27.7604    3.5556 C   0  0  0  0  0  0  0  0  0  0  0  0
   -6.0015   26.8258    2.5913 N   0  0  0  0  0  0  0  0  0  0  0  0
   -5.0311   25.9094    2.6855 C   0  0  0  0  0  0  0  0  0  0  0  0
   -4.0638   25.8862    3.6659 C   0  0  0  0  0  0  0  0  0  0  0  0
   -3.1120   24.7602    3.4691 C   0  0  0  0  0  0  0  0  0  0  0  0
   -3.9030   23.8676    2.4980 C   0  0  0  0  0  0  0  0  0  0  0  0
   -4.8217   24.7980    1.6960 C   0  0  0  0  0  0  0  0  0  0  0  0
  1  2  2  0  0  0
  2  3  1  0  0  0
  3  5  1  0  0  0
  5  6  1  0  0  0
  6  7  1  0  0  0
  7  8  1  0  0  0
  8  9  1  0  0  0
  9 10  1  0  0  0
 10 11  2  0  0  0
 11 12  1  0  0  0
 12 13  2  0  0  0
 13 14  1  0  0  0
 14 15  2  0  0  0
  2 17  1  0  0  0
 17 18  1  0  0  0
 18 19  2  0  0  0
 19 20  1  0  0  0
 20 21  2  0  0  0
 21 22  1  0  0  0
 22 23  1  0  0  0
 23 24  1  0  0  0
 24 25  1  0  0  0
 15  5  1  0  0  0
 22 17  2  0  0  0
 15 10  1  0  0  0
 25 21  1  0  0  0
  3  4  1  0  0  0
  7 16  1  0  0  0
M  END
> <minimizedAffinity>
-9.36333

$$$$
OCNT-2316543


 25 28  0  0  0  0  0  0  0  0999 V2000
   -2.8986   31.0882    8.4547 C   0  0  0  0  0  0  0  0  0  0  0  0
   -2.8621   32.3843    7.6036 C   0  0  0  0  0  0  0  0  0  0  0  0
   -3.7383   33.3989    8.3391 C   0  0  0  0  0  0  0  0  0  0  0  0
   -3.7972   32.9336    9.7893 C   0  0  0  0  0  0  0  0  0  0  0  0
   -2.8795   31.7163    9.8706 C   0  0  0  0  0  0  0  0  0  0  0  0
   -0.6046   27.6685    5.7440 F   0  0  0  0  0  0  0  0  0  0  0  0
   -0.5792   28.4997    6.7940 C   0  0  0  0  0  0  0  0  0  0  0  0
    0.5500   28.5509    7.5946 C   0  0  0  0  0  0  0  0  0  0  0  0
    0.5589   29.4261    8.6676 C   0  0  0  0  0  0  0  0  0  0  0  0
    1.6444   29.5010    9.4486 F   0  0  0  0  0  0  0  0  0  0  0  0
   -0.5421   30.2349    8.9503 C   0  0  0  0  0  0  0  0  0  0  0  0
   -1.7041   30.1760    8.1561 C   0  0  0  0  0  0  0  0  0  0  0  0
   -1.6928   29.2995    7.0565 C   0  0  0  0  0  0  0  0  0  0  0  0
   -4.1840   30.3320    8.2233 C   0  0  0  0  0  0  0  0  0  0  0  0
   -5.0309   30.3943    7.2178 N   0  0  0  0  0  0  0  0  0  0  0  0
   -5.9602   29.4419    7.5620 C   0  0  0  0  0  0  0  0  0  0  0  0
   -5.7406   28.8435    8.7410 N   0  0  0  0  0  0  0  0  0  0  0  0
   -4.5473   29.4196    9.1752 O   0  0  0  0  0  0  0  0  0  0  0  0
   -7.1368   29.1297    6.7148 C   0  0  0  0  0  0  0  0  0  0  0  0
   -6.5903   28.5296    5.4492 C   0  0  0  0  0  0  0  0  0  0  0  0
   -6.3627   29.3054    4.3071 C   0  0  0  0  0  0  0  0  0  0  0  0
   -5.8498   28.7106    3.1584 C   0  0  0  0  0  0  0  0  0  0  0  0
   -5.5797   27.3529    3.1875 C   0  0  0  0  0  0  0  0  0  0  0  0
   -5.7826   26.5706    4.2685 N   0  0  0  0  0  0  0  0  0  0  0  0
   -6.2741   27.1751    5.3736 C   0  0  0  0  0  0  0  0  0  0  0  0
  6  7  1  0  0  0
  7  8  1  0  0  0
  8  9  2  0  0  0
  9 10  1  0  0  0
  9 11  1  0  0  0
 11 12  2  0  0  0
 12  1  1  0  0  0
  1 14  1  0  0  0
 14 15  2  0  0  0
 15 16  1  0  0  0
 16 19  1  0  0  0
 19 20  1  0  0  0
 20 21  1  0  0  0
 21 22  2  0  0  0
 22 23  1  0  0  0
 23 24  2  0  0  0
 24 25  1  0  0  0
 16 17  2  0  0  0
 17 18  1  0  0  0
  1  2  1  0  0  0
  2  3  1  0  0  0
  3  4  1  0  0  0
  4  5  1  0  0  0
 12 13  1  0  0  0
 13  7  2  0  0  0
  5  1  1  0  0  0
 18 14  1  0  0  0
 25 20  2  0  0  0
M  END
> <minimizedAffinity>
-9.90859

$$$$
OCNT-2316553


 29 32  0  0  0  0  0  0  0  0999 V2000
   -4.6765   28.1323    6.5569 N   0  0  0  0  0  0  0  0  0  0  0  0
   -4.8944   27.6762    7.4396 H   0  0  0  0  0  0  0  0  0  0  0  0
   -4.7373   27.1352    5.4934 C   0  0  0  0  0  0  0  0  0  0  0  0
    0.7113   25.5610    4.0989 C   0  0  0  0  0  0  0  0  0  0  0  0
   -0.6903   25.9842    4.4224 C   0  0  0  0  0  0  0  0  0  0  0  0
   -0.9550   26.7259    5.5759 C   0  0  0  0  0  0  0  0  0  0  0  0
   -2.2636   27.0930    5.8941 C   0  0  0  0  0  0  0  0  0  0  0  0
   -3.3426   26.7303    5.0677 C   0  0  0  0  0  0  0  0  0  0  0  0
   -3.0817   25.9530    3.9233 C   0  0  0  0  0  0  0  0  0  0  0  0
   -1.7608   25.5885    3.6107 C   0  0  0  0  0  0  0  0  0  0  0  0
   -4.1394   25.4933    3.0504 C   0  0  0  0  0  0  0  0  0  0  0  0
   -4.3552   24.1723    2.7237 C   0  0  0  0  0  0  0  0  0  0  0  0
   -5.4298   24.1660    1.8832 N   0  0  0  0  0  0  0  0  0  0  0  0
   -6.0385   23.0155    1.2621 C   0  0  0  0  0  0  0  0  0  0  0  0
   -5.9326   25.3918    1.6431 N   0  0  0  0  0  0  0  0  0  0  0  0
   -5.1343   26.2012    2.3460 C   0  0  0  0  0  0  0  0  0  0  0  0
   -5.6198   29.2194    6.3200 C   0  0  0  0  0  0  0  0  0  0  0  0
   -5.3646   30.3336    7.3262 C   0  0  0  0  0  0  0  0  0  0  0  0
   -6.5826   30.8753    8.0727 C   0  0  0  0  0  0  0  0  0  0  0  0
   -5.5737   30.0616    8.8150 C   0  0  0  0  0  0  0  0  0  0  0  0
   -4.3090   31.3596    6.9129 C   0  0  0  0  0  0  0  0  0  0  0  0
   -4.0668   31.2137    5.5109 O   0  0  0  0  0  0  0  0  0  0  0  0
   -4.9138   31.3866    5.0708 H   0  0  0  0  0  0  0  0  0  0  0  0
   -3.0207   31.2640    7.7114 C   0  0  0  0  0  0  0  0  0  0  0  0
   -2.0618   30.2911    7.3835 C   0  0  0  0  0  0  0  0  0  0  0  0
   -0.8702   30.1851    8.1043 C   0  0  0  0  0  0  0  0  0  0  0  0
   -0.6200   31.0461    9.1697 C   0  0  0  0  0  0  0  0  0  0  0  0
   -1.5593   32.0150    9.5122 C   0  0  0  0  0  0  0  0  0  0  0  0
   -2.7496   32.1227    8.7891 C   0  0  0  0  0  0  0  0  0  0  0  0
  4  5  1  0  0  0
  5  6  1  0  0  0
  6  7  2  0  0  0
  7  8  1  0  0  0
  8  3  1  0  0  0
  3  1  1  0  0  0
  1 17  1  0  0  0
 17 18  1  0  0  0
 18 21  1  0  0  0
 21 22  1  0  0  0
 21 24  1  0  0  0
 24 25  2  0  0  0
 25 26  1  0  0  0
 26 27  2  0  0  0
 27 28  1  0  0  0
 28 29  2  0  0  0
 18 19  1  0  0  0
 19 20  1  0  0  0
  8  9  2  0  0  0
  9 11  1  0  0  0
 11 12  2  0  0  0
 12 13  1  0  0  0
 13 14  1  0  0  0
 13 15  1  0  0  0
 15 16  2  0  0  0
  9 10  1  0  0  0
 10  5  2  0  0  0
 20 18  1  0  0  0
 16 11  1  0  0  0
 29 24  1  0  0  0
  1  2  1  0  0  0
 22 23  1  0  0  0
M  END
> <minimizedAffinity>
-9.56079

$$$$
OCNT-2316555


 26 28  0  0  0  0  0  0  0  0999 V2000
   -4.3523   26.9436    4.8937 C   0  0  0  0  0  0  0  0  0  0  0  0
   -3.8043   28.1071    5.5771 N   0  0  0  0  0  0  0  0  0  0  0  0
   -4.5794   28.7823    6.4885 C   0  0  0  0  0  0  0  0  0  0  0  0
   -5.7329   28.4458    6.7412 O   0  0  0  0  0  0  0  0  0  0  0  0
   -3.9497   29.8577    7.0966 N   0  0  0  0  0  0  0  0  0  0  0  0
   -4.6998   30.5821    8.1124 C   0  0  0  0  0  0  0  0  0  0  0  0
   -2.8374   28.0384    5.8597 H   0  0  0  0  0  0  0  0  0  0  0  0
   -2.8005   30.5559    6.5188 C   0  0  0  0  0  0  0  0  0  0  0  0
   -1.4884   30.1779    7.1654 C   0  0  0  0  0  0  0  0  0  0  0  0
   -0.5261   29.4663    6.4354 C   0  0  0  0  0  0  0  0  0  0  0  0
    0.6540   29.1021    7.0650 C   0  0  0  0  0  0  0  0  0  0  0  0
    0.9347   29.3831    8.3557 N   0  0  0  0  0  0  0  0  0  0  0  0
   -0.0047   30.0640    9.0469 C   0  0  0  0  0  0  0  0  0  0  0  0
   -1.2154   30.4719    8.5071 C   0  0  0  0  0  0  0  0  0  0  0  0
   -2.0750   26.0317    4.2296 C   0  0  0  0  0  0  0  0  0  0  0  0
   -3.4587   26.4690    3.7191 C   0  0  0  0  0  0  0  0  0  0  0  0
   -4.0144   25.3875    2.8769 N   0  0  0  0  0  0  0  0  0  0  0  0
   -4.4521   24.1941    3.6169 C   0  0  0  0  0  0  0  0  0  0  0  0
   -4.7257   23.0357    2.6458 C   0  0  0  0  0  0  0  0  0  0  0  0
   -5.6096   23.4442    1.4953 C   0  0  0  0  0  0  0  0  0  0  0  0
   -6.2362   22.4703    0.7048 C   0  0  0  0  0  0  0  0  0  0  0  0
   -7.0262   22.8466   -0.3804 C   0  0  0  0  0  0  0  0  0  0  0  0
   -7.1923   24.1953   -0.6880 C   0  0  0  0  0  0  0  0  0  0  0  0
   -6.5650   25.1704    0.0877 C   0  0  0  0  0  0  0  0  0  0  0  0
   -5.7581   24.8053    1.1759 C   0  0  0  0  0  0  0  0  0  0  0  0
   -5.1196   25.8807    2.0302 C   0  0  0  0  0  0  0  0  0  0  0  0
 15 16  1  0  0  0
 16  1  1  0  0  0
  1  2  1  0  0  0
  2  3  1  0  0  0
  3  4  2  0  0  0
  3  5  1  0  0  0
  5  6  1  0  0  0
  5  8  1  0  0  0
  8  9  1  0  0  0
  9 10  2  0  0  0
 10 11  1  0  0  0
 11 12  2  0  0  0
 12 13  1  0  0  0
 13 14  2  0  0  0
 16 17  1  0  0  0
 17 18  1  0  0  0
 18 19  1  0  0  0
 19 20  1  0  0  0
 20 21  2  0  0  0
 21 22  1  0  0  0
 22 23  2  0  0  0
 23 24  1  0  0  0
 24 25  2  0  0  0
 25 26  1  0  0  0
 14  9  1  0  0  0
 26 17  1  0  0  0
 25 20  1  0  0  0
  2  7  1  0  0  0
M  END
> <minimizedAffinity>
-9.68608

$$$$
OCNT-2316568


 24 27  0  0  0  0  0  0  0  0999 V2000
   -5.4859   25.1638    2.6545 C   0  0  0  0  0  0  0  0  0  0  0  0
   -4.4194   24.9390    3.3864 N   0  0  0  0  0  0  0  0  0  0  0  0
   -4.0034   26.2135    3.7109 C   0  0  0  0  0  0  0  0  0  0  0  0
   -4.7769   27.1838    3.1939 N   0  0  0  0  0  0  0  0  0  0  0  0
   -5.7601   26.4889    2.4941 O   0  0  0  0  0  0  0  0  0  0  0  0
   -7.9688   22.7231   -0.3104 C   0  0  0  0  0  0  0  0  0  0  0  0
   -6.4696   22.5980   -0.0222 C   0  0  0  0  0  0  0  0  0  0  0  0
   -6.1686   21.3863    0.8800 C   0  0  0  0  0  0  0  0  0  0  0  0
   -5.7742   21.7547    2.3119 C   0  0  0  0  0  0  0  0  0  0  0  0
   -6.5899   22.9292    2.8393 C   0  0  0  0  0  0  0  0  0  0  0  0
   -6.4069   24.1983    1.9860 C   0  0  0  0  0  0  0  0  0  0  0  0
   -5.8985   23.8950    0.5638 C   0  0  0  0  0  0  0  0  0  0  0  0
   -2.8258   26.4617    4.5369 C   0  0  0  0  0  0  0  0  0  0  0  0
   -1.5762   25.9553    4.1546 C   0  0  0  0  0  0  0  0  0  0  0  0
   -0.4452   26.1841    4.9402 C   0  0  0  0  0  0  0  0  0  0  0  0
   -0.5484   26.9244    6.1174 C   0  0  0  0  0  0  0  0  0  0  0  0
   -1.7843   27.4475    6.5210 C   0  0  0  0  0  0  0  0  0  0  0  0
   -2.9173   27.2057    5.7246 C   0  0  0  0  0  0  0  0  0  0  0  0
   -1.9054   28.2350    7.8007 C   0  0  0  0  0  0  0  0  0  0  0  0
   -2.1578   29.6400    7.5388 N   0  0  0  0  0  0  0  0  0  0  0  0
   -3.3028   30.3300    7.8289 C   0  0  0  0  0  0  0  0  0  0  0  0
   -3.0815   31.5999    7.3490 C   0  0  0  0  0  0  0  0  0  0  0  0
   -1.8441   31.6914    6.7652 N   0  0  0  0  0  0  0  0  0  0  0  0
   -1.3114   30.4971    6.8944 C   0  0  0  0  0  0  0  0  0  0  0  0
  6  7  1  0  0  0
  7  8  1  0  0  0
  8  9  1  0  0  0
  9 10  1  0  0  0
 10 11  1  0  0  0
 11  1  1  0  0  0
  1  2  2  0  0  0
  2  3  1  0  0  0
  3 13  1  0  0  0
 13 14  1  0  0  0
 14 15  2  0  0  0
 15 16  1  0  0  0
 16 17  2  0  0  0
 17 19  1  0  0  0
 19 20  1  0  0  0
 20 21  1  0  0  0
 21 22  2  0  0  0
 22 23  1  0  0  0
 23 24  2  0  0  0
 17 18  1  0  0  0
  3  4  2  0  0  0
  4  5  1  0  0  0
 11 12  1  0  0  0
 12  7  1  0  0  0
  5  1  1  0  0  0
 18 13  2  0  0  0
 24 20  1  0  0  0
M  END
> <minimizedAffinity>
-9.49613

$$$$
OCNT-2316569


 28 31  0  0  0  0  0  0  0  0999 V2000
   -0.2903   27.6540    5.7398 C   0  0  0  0  0  0  0  0  0  0  0  0
    0.4694   27.8645    4.7976 O   0  0  0  0  0  0  0  0  0  0  0  0
   -1.0986   26.5038    5.8017 N   0  0  0  0  0  0  0  0  0  0  0  0
   -2.3022   26.4216    6.6237 C   0  0  0  0  0  0  0  0  0  0  0  0
   -3.5795   26.7540    5.8520 C   0  0  0  0  0  0  0  0  0  0  0  0
   -3.9904   25.6318    4.8899 C   0  0  0  0  0  0  0  0  0  0  0  0
   -3.3589   25.6213    3.5612 N   0  0  0  0  0  0  0  0  0  0  0  0
   -1.9500   26.0510    3.5055 C   0  0  0  0  0  0  0  0  0  0  0  0
   -1.0346   25.5961    4.6568 C   0  0  0  0  0  0  0  0  0  0  0  0
   -1.2525   30.1960    8.1040 C   0  0  0  0  0  0  0  0  0  0  0  0
   -1.4330   29.4472    7.0390 N   0  0  0  0  0  0  0  0  0  0  0  0
   -0.3528   28.5858    6.8682 C   0  0  0  0  0  0  0  0  0  0  0  0
    0.6455   28.7211    7.8186 C   0  0  0  0  0  0  0  0  0  0  0  0
    0.2176   29.9302    8.9526 S   0  0  0  0  0  0  0  0  0  0  0  0
   -5.2580   33.1984    7.9672 C   0  0  0  0  0  0  0  0  0  0  0  0
   -3.9950   32.5774    8.4502 C   0  0  0  0  0  0  0  0  0  0  0  0
   -3.3184   32.7949    9.6334 C   0  0  0  0  0  0  0  0  0  0  0  0
   -2.1831   31.9559    9.6390 C   0  0  0  0  0  0  0  0  0  0  0  0
   -2.1946   31.2116    8.4743 C   0  0  0  0  0  0  0  0  0  0  0  0
   -3.2694   31.6507    7.7246 N   0  0  0  0  0  0  0  0  0  0  0  0
   -3.5711   31.2555    6.3628 C   0  0  0  0  0  0  0  0  0  0  0  0
   -3.5534   24.3360    2.8673 C   0  0  0  0  0  0  0  0  0  0  0  0
   -4.6817   24.4146    1.8939 C   0  0  0  0  0  0  0  0  0  0  0  0
   -5.3156   23.3868    1.2193 C   0  0  0  0  0  0  0  0  0  0  0  0
   -6.2776   23.9653    0.4481 N   0  0  0  0  0  0  0  0  0  0  0  0
   -7.2038   23.3012   -0.4381 C   0  0  0  0  0  0  0  0  0  0  0  0
   -6.3338   25.3043    0.5794 N   0  0  0  0  0  0  0  0  0  0  0  0
   -5.3682   25.5742    1.4620 C   0  0  0  0  0  0  0  0  0  0  0  0
 15 16  1  0  0  0
 16 17  2  0  0  0
 17 18  1  0  0  0
 18 19  2  0  0  0
 19 10  1  0  0  0
 10 11  2  0  0  0
 11 12  1  0  0  0
 12  1  1  0  0  0
  1  2  2  0  0  0
  1  3  1  0  0  0
  3  4  1  0  0  0
  4  5  1  0  0  0
  5  6  1  0  0  0
  6  7  1  0  0  0
  7 22  1  0  0  0
 22 23  1  0  0  0
 23 24  2  0  0  0
 24 25  1  0  0  0
 25 26  1  0  0  0
 25 27  1  0  0  0
 27 28  2  0  0  0
  7  8  1  0  0  0
  8  9  1  0  0  0
 12 13  2  0  0  0
 13 14  1  0  0  0
 19 20  1  0  0  0
 20 21  1  0  0  0
 20 16  1  0  0  0
 14 10  1  0  0  0
  9  3  1  0  0  0
 28 23  1  0  0  0
M  END
> <minimizedAffinity>
-8.91059

$$$$
OCNT-2316570


 29 30  0  0  0  0  0  0  0  0999 V2000
   -7.4182   23.2701    4.5647 C   0  0  0  0  0  0  0  0  0  0  0  0
   -7.9957   24.1282    3.9164 O   0  0  0  0  0  0  0  0  0  0  0  0
   -6.0437   23.2451    4.7815 N   0  0  0  0  0  0  0  0  0  0  0  0
   -5.3701   22.0059    5.1418 C   0  0  0  0  0  0  0  0  0  0  0  0
   -4.9692   21.2544    3.8722 C   0  0  0  0  0  0  0  0  0  0  0  0
   -4.2006   22.1409    2.8753 C   0  0  0  0  0  0  0  0  0  0  0  0
   -4.7668   23.5788    2.6604 C   0  0  0  0  0  0  0  0  0  0  0  0
   -5.1906   24.1769    4.0315 C   0  0  0  0  0  0  0  0  0  0  0  0
   -5.7660   23.6819    1.5133 C   0  0  0  0  0  0  0  0  0  0  0  0
   -6.6856   22.6725    1.1980 C   0  0  0  0  0  0  0  0  0  0  0  0
   -7.5778   22.8096    0.1303 C   0  0  0  0  0  0  0  0  0  0  0  0
   -7.5645   23.9589   -0.6501 C   0  0  0  0  0  0  0  0  0  0  0  0
   -6.6533   24.9705   -0.3666 C   0  0  0  0  0  0  0  0  0  0  0  0
   -5.7627   24.8312    0.7020 C   0  0  0  0  0  0  0  0  0  0  0  0
   -5.5810   25.6787    4.1297 C   0  0  0  0  0  0  0  0  0  0  0  0
   -5.7448   26.3988    3.1419 O   0  0  0  0  0  0  0  0  0  0  0  0
   -5.9242   26.1277    5.3924 N   0  0  0  0  0  0  0  0  0  0  0  0
   -6.2350   25.4427    6.0679 H   0  0  0  0  0  0  0  0  0  0  0  0
   -6.5004   27.4499    5.5419 C   0  0  0  0  0  0  0  0  0  0  0  0
   -5.5817   28.2658    6.4476 C   0  0  0  0  0  0  0  0  0  0  0  0
   -6.0850   28.5775    7.6786 N   0  0  0  0  0  0  0  0  0  0  0  0
   -4.4522   28.6201    6.1150 O   0  0  0  0  0  0  0  0  0  0  0  0
   -6.7114   27.9068    8.1032 H   0  0  0  0  0  0  0  0  0  0  0  0
   -5.4030   28.9864    8.3052 H   0  0  0  0  0  0  0  0  0  0  0  0
   -8.0406   22.2060    5.1372 O   0  0  0  0  0  0  0  0  0  0  0  0
   -8.1552   22.0294    7.5896 C   0  0  0  0  0  0  0  0  0  0  0  0
   -8.8954   22.3780    6.2945 C   0  0  0  0  0  0  0  0  0  0  0  0
  -10.0298   21.3623    6.0899 C   0  0  0  0  0  0  0  0  0  0  0  0
   -9.5062   23.7829    6.3398 C   0  0  0  0  0  0  0  0  0  0  0  0
 26 27  1  0  0  0
 27 28  1  0  0  0
 27 29  1  0  0  0
 27 25  1  0  0  0
 25  1  1  0  0  0
  1  2  2  0  0  0
  1  3  1  0  0  0
  3  4  1  0  0  0
  4  5  1  0  0  0
  5  6  1  0  0  0
  6  7  1  0  0  0
  7  9  1  0  0  0
  9 10  2  0  0  0
 10 11  1  0  0  0
 11 12  2  0  0  0
 12 13  1  0  0  0
 13 14  2  0  0  0
  7  8  1  0  0  0
  8 15  1  0  0  0
 15 16  2  0  0  0
 15 17  1  0  0  0
 17 19  1  0  0  0
 19 20  1  0  0  0
 20 21  1  0  0  0
 20 22  2  0  0  0
  8  3  1  0  0  0
 14  9  1  0  0  0
 17 18  1  0  0  0
 21 23  1  0  0  0
 21 24  1  0  0  0
M  END
> <minimizedAffinity>
-8.06554

$$$$
OCNT-2316573


 23 25  0  0  0  0  0  0  0  0999 V2000
   -3.7657   31.6504    6.5492 S   0  0  0  0  0  0  0  0  0  0  0  0
   -3.5285   32.8430    9.7211 C   0  0  0  0  0  0  0  0  0  0  0  0
   -2.5707   31.9244    9.0542 C   0  0  0  0  0  0  0  0  0  0  0  0
   -2.5583   31.3804    7.7867 C   0  0  0  0  0  0  0  0  0  0  0  0
   -1.4059   30.5526    7.6605 C   0  0  0  0  0  0  0  0  0  0  0  0
   -0.8690   29.7367    6.6414 C   0  0  0  0  0  0  0  0  0  0  0  0
    0.3280   29.0471    6.8660 C   0  0  0  0  0  0  0  0  0  0  0  0
    0.9913   29.1573    8.0853 C   0  0  0  0  0  0  0  0  0  0  0  0
    0.4797   29.9533    9.1142 C   0  0  0  0  0  0  0  0  0  0  0  0
   -0.7191   30.6357    8.8729 C   0  0  0  0  0  0  0  0  0  0  0  0
   -1.4448   31.4677    9.6955 N   0  0  0  0  0  0  0  0  0  0  0  0
   -1.1825   31.7003   10.6431 H   0  0  0  0  0  0  0  0  0  0  0  0
   -5.0542   30.4732    7.0787 C   0  0  0  0  0  0  0  0  0  0  0  0
   -4.6458   28.9903    7.0111 C   0  0  0  0  0  0  0  0  0  0  0  0
   -5.6013   28.0454    6.4224 N   0  0  0  0  0  0  0  0  0  0  0  0
   -6.4426   28.5446    6.1345 H   0  0  0  0  0  0  0  0  0  0  0  0
   -5.1055   27.2124    5.3138 C   0  0  0  0  0  0  0  0  0  0  0  0
   -5.6431   27.8664    4.0255 C   0  0  0  0  0  0  0  0  0  0  0  0
   -5.7294   26.9477    2.8068 C   0  0  0  0  0  0  0  0  0  0  0  0
   -4.6311   25.9089    2.6606 C   0  0  0  0  0  0  0  0  0  0  0  0
   -3.3532   26.4487    2.9693 O   0  0  0  0  0  0  0  0  0  0  0  0
   -2.9551   26.1949    4.3103 C   0  0  0  0  0  0  0  0  0  0  0  0
   -3.5664   27.1647    5.3147 C   0  0  0  0  0  0  0  0  0  0  0  0
  2  3  1  0  0  0
  3  4  2  0  0  0
  4  1  1  0  0  0
  1 13  1  0  0  0
 13 14  1  0  0  0
 14 15  1  0  0  0
 15 17  1  0  0  0
 17 18  1  0  0  0
 18 19  1  0  0  0
 19 20  1  0  0  0
 20 21  1  0  0  0
 21 22  1  0  0  0
 22 23  1  0  0  0
  4  5  1  0  0  0
  5  6  2  0  0  0
  6  7  1  0  0  0
  7  8  2  0  0  0
  8  9  1  0  0  0
  9 10  2  0  0  0
 10 11  1  0  0  0
 11  3  1  0  0  0
 23 17  1  0  0  0
 10  5  1  0  0  0
 15 16  1  0  0  0
 11 12  1  0  0  0
M  END
> <minimizedAffinity>
-8.37462

$$$$
OCNT-2316587


 24 25  0  0  0  0  0  0  0  0999 V2000
   -2.0184   26.5358    5.0387 C   0  0  0  0  0  0  0  0  0  0  0  0
   -2.7746   27.3124    5.8268 C   0  0  0  0  0  0  0  0  0  0  0  0
   -2.2665   27.9945    6.9141 N   0  0  0  0  0  0  0  0  0  0  0  0
   -0.9224   27.9206    7.2616 C   0  0  0  0  0  0  0  0  0  0  0  0
   -0.4141   28.4769    8.2318 O   0  0  0  0  0  0  0  0  0  0  0  0
   -0.1496   27.1402    6.4423 N   0  0  0  0  0  0  0  0  0  0  0  0
   -0.5680   26.4661    5.3319 C   0  0  0  0  0  0  0  0  0  0  0  0
    0.2159   25.8425    4.6246 O   0  0  0  0  0  0  0  0  0  0  0  0
    0.8325   27.1012    6.6631 H   0  0  0  0  0  0  0  0  0  0  0  0
   -2.5448   25.8056    3.8399 C   0  0  0  0  0  0  0  0  0  0  0  0
   -3.4358   26.5922    2.9851 N   0  0  0  0  0  0  0  0  0  0  0  0
   -3.4398   27.5720    3.2575 H   0  0  0  0  0  0  0  0  0  0  0  0
   -4.8063   26.0547    2.8910 C   0  0  0  0  0  0  0  0  0  0  0  0
   -4.8519   25.1420    1.6550 C   0  0  0  0  0  0  0  0  0  0  0  0
   -6.2142   24.9314    0.9292 C   0  0  0  0  0  0  0  0  0  0  0  0
   -5.7914   23.4679    0.7013 C   0  0  0  0  0  0  0  0  0  0  0  0
   -4.8997   23.6097    1.9473 C   0  0  0  0  0  0  0  0  0  0  0  0
   -5.8015   27.2281    2.7448 C   0  0  0  0  0  0  0  0  0  0  0  0
   -6.1513   29.5944    3.6468 C   0  0  0  0  0  0  0  0  0  0  0  0
   -5.9844   28.1197    3.9772 C   0  0  0  0  0  0  0  0  0  0  0  0
   -3.1528   28.8664    7.6952 C   0  0  0  0  0  0  0  0  0  0  0  0
   -3.6919   30.0519    6.8838 C   0  0  0  0  0  0  0  0  0  0  0  0
   -2.6144   30.8631    6.4176 O   0  0  0  0  0  0  0  0  0  0  0  0
   -2.1688   31.7764    7.4099 C   0  0  0  0  0  0  0  0  0  0  0  0
 19 20  1  0  0  0
 20 18  1  0  0  0
 18 13  1  0  0  0
 13 11  1  0  0  0
 11 10  1  0  0  0
 10  1  1  0  0  0
  1  2  2  0  0  0
  2  3  1  0  0  0
  3 21  1  0  0  0
 21 22  1  0  0  0
 22 23  1  0  0  0
 23 24  1  0  0  0
  3  4  1  0  0  0
  4  5  2  0  0  0
  4  6  1  0  0  0
  6  7  1  0  0  0
  7  8  2  0  0  0
 13 14  1  0  0  0
 14 15  1  0  0  0
 15 16  1  0  0  0
 16 17  1  0  0  0
  7  1  1  0  0  0
 17 14  1  0  0  0
 11 12  1  0  0  0
  6  9  1  0  0  0
M  END
> <minimizedAffinity>
-7.59319

$$$$
OCNT-2316594


 24 26  0  0  0  0  0  0  0  0999 V2000
   -4.1041   31.3047    5.7397 N   0  0  0  0  0  0  0  0  0  0  0  0
   -4.8415   30.1369    5.7655 C   0  0  0  0  0  0  0  0  0  0  0  0
   -4.9506   29.3697    6.7122 O   0  0  0  0  0  0  0  0  0  0  0  0
   -5.4759   29.9376    4.5523 N   0  0  0  0  0  0  0  0  0  0  0  0
   -4.2766   31.9381    4.9745 H   0  0  0  0  0  0  0  0  0  0  0  0
   -4.9249   30.2196    3.7556 H   0  0  0  0  0  0  0  0  0  0  0  0
   -5.1275   32.9021    8.1226 C   0  0  0  0  0  0  0  0  0  0  0  0
   -3.7902   32.4335    7.8748 N   0  0  0  0  0  0  0  0  0  0  0  0
   -2.8161   32.7007    8.7613 N   0  0  0  0  0  0  0  0  0  0  0  0
   -1.6991   32.1573    8.2998 N   0  0  0  0  0  0  0  0  0  0  0  0
   -1.9856   31.5464    7.1102 C   0  0  0  0  0  0  0  0  0  0  0  0
   -3.3218   31.7088    6.8069 C   0  0  0  0  0  0  0  0  0  0  0  0
   -6.2766   28.7361    4.3647 C   0  0  0  0  0  0  0  0  0  0  0  0
   -5.6853   27.8292    3.2858 C   0  0  0  0  0  0  0  0  0  0  0  0
   -5.8723   26.3660    3.6058 C   0  0  0  0  0  0  0  0  0  0  0  0
   -6.0645   25.9613    4.9366 C   0  0  0  0  0  0  0  0  0  0  0  0
   -6.2655   24.6153    5.2501 C   0  0  0  0  0  0  0  0  0  0  0  0
   -6.2703   23.6556    4.2397 C   0  0  0  0  0  0  0  0  0  0  0  0
   -6.0732   24.0411    2.9158 C   0  0  0  0  0  0  0  0  0  0  0  0
   -5.8963   25.3938    2.5936 C   0  0  0  0  0  0  0  0  0  0  0  0
   -5.7337   25.8261    1.2992 O   0  0  0  0  0  0  0  0  0  0  0  0
   -6.1474   24.8319    0.3562 C   0  0  0  0  0  0  0  0  0  0  0  0
   -5.5624   23.4804    0.7245 C   0  0  0  0  0  0  0  0  0  0  0  0
   -6.0776   23.0346    1.9831 O   0  0  0  0  0  0  0  0  0  0  0  0
  7  8  1  0  0  0
  8  9  1  0  0  0
  9 10  2  0  0  0
 10 11  1  0  0  0
 11 12  2  0  0  0
 12  1  1  0  0  0
  1  2  1  0  0  0
  2  3  2  0  0  0
  2  4  1  0  0  0
  4 13  1  0  0  0
 13 14  1  0  0  0
 14 15  1  0  0  0
 15 16  2  0  0  0
 16 17  1  0  0  0
 17 18  2  0  0  0
 18 19  1  0  0  0
 19 20  2  0  0  0
 20 21  1  0  0  0
 21 22  1  0  0  0
 22 23  1  0  0  0
 23 24  1  0  0  0
 12  8  1  0  0  0
 20 15  1  0  0  0
 24 19  1  0  0  0
  1  5  1  0  0  0
  4  6  1  0  0  0
M  END
> <minimizedAffinity>
-8.68611

$$$$
OCNT-2316612


 24 26  0  0  0  0  0  0  0  0999 V2000
   -5.0448   26.6203    4.6852 C   0  0  0  0  0  0  0  0  0  0  0  0
   -6.1631   27.3828    5.0329 C   0  0  0  0  0  0  0  0  0  0  0  0
   -6.0037   28.4110    5.9400 C   0  0  0  0  0  0  0  0  0  0  0  0
   -4.8293   28.7273    6.5222 N   0  0  0  0  0  0  0  0  0  0  0  0
   -3.7484   27.9968    6.2001 C   0  0  0  0  0  0  0  0  0  0  0  0
   -2.5338   28.3062    6.7986 C   0  0  0  0  0  0  0  0  0  0  0  0
   -1.3578   27.5967    6.5258 C   0  0  0  0  0  0  0  0  0  0  0  0
   -1.4005   26.5463    5.6169 C   0  0  0  0  0  0  0  0  0  0  0  0
   -2.6099   26.2155    5.0023 C   0  0  0  0  0  0  0  0  0  0  0  0
   -3.7962   26.9272    5.2832 C   0  0  0  0  0  0  0  0  0  0  0  0
   -5.7270   22.9377    2.2698 C   0  0  0  0  0  0  0  0  0  0  0  0
   -4.5322   23.6502    1.6244 C   0  0  0  0  0  0  0  0  0  0  0  0
   -4.6676   25.1518    1.3716 C   0  0  0  0  0  0  0  0  0  0  0  0
   -5.4416   25.9721    2.3993 C   0  0  0  0  0  0  0  0  0  0  0  0
   -5.1402   25.5286    3.7727 N   0  0  0  0  0  0  0  0  0  0  0  0
   -6.0992   24.5243    4.2820 C   0  0  0  0  0  0  0  0  0  0  0  0
   -5.7505   23.1233    3.7912 C   0  0  0  0  0  0  0  0  0  0  0  0
   -7.3408   22.6384    0.5425 C   0  0  0  0  0  0  0  0  0  0  0  0
   -6.9832   23.3457    1.7235 O   0  0  0  0  0  0  0  0  0  0  0  0
   -0.2600   28.0354    7.2097 O   0  0  0  0  0  0  0  0  0  0  0  0
    0.4406   29.1526    6.6908 C   0  0  0  0  0  0  0  0  0  0  0  0
   -0.3581   30.2388    6.6195 F   0  0  0  0  0  0  0  0  0  0  0  0
    0.9499   28.8858    5.4686 F   0  0  0  0  0  0  0  0  0  0  0  0
    1.4687   29.4428    7.5184 F   0  0  0  0  0  0  0  0  0  0  0  0
 18 19  1  0  0  0
 19 11  1  0  0  0
 11 12  1  0  0  0
 12 13  1  0  0  0
 13 14  1  0  0  0
 14 15  1  0  0  0
 15  1  1  0  0  0
  1  2  2  0  0  0
  2  3  1  0  0  0
  3  4  2  0  0  0
  4  5  1  0  0  0
  5  6  2  0  0  0
  6  7  1  0  0  0
  7 20  1  0  0  0
 20 21  1  0  0  0
 21 22  1  0  0  0
 21 23  1  0  0  0
 21 24  1  0  0  0
  7  8  2  0  0  0
  8  9  1  0  0  0
  9 10  2  0  0  0
 15 16  1  0  0  0
 16 17  1  0  0  0
 17 11  1  0  0  0
 10  1  1  0  0  0
 10  5  1  0  0  0
M  END
> <minimizedAffinity>
-8.93912

$$$$
OCNT-2316617


 27 29  0  0  0  0  0  0  0  0999 V2000
   -5.1760   27.7153    4.8972 N   0  0  0  0  0  0  0  0  0  0  0  0
   -3.8971   27.0001    5.0973 C   0  0  0  0  0  0  0  0  0  0  0  0
   -3.8104   26.0739    3.8755 C   0  0  0  0  0  0  0  0  0  0  0  0
   -2.9932   26.6706    2.8694 O   0  0  0  0  0  0  0  0  0  0  0  0
   -5.2568   25.9373    3.3687 C   0  0  0  0  0  0  0  0  0  0  0  0
   -6.0848   26.6564    4.4355 C   0  0  0  0  0  0  0  0  0  0  0  0
   -3.4181   27.5071    2.6123 H   0  0  0  0  0  0  0  0  0  0  0  0
   -5.6730   28.3158    6.1607 C   0  0  0  0  0  0  0  0  0  0  0  0
   -4.7519   30.5094    5.7990 O   0  0  0  0  0  0  0  0  0  0  0  0
   -4.8480   29.5497    6.5542 C   0  0  0  0  0  0  0  0  0  0  0  0
   -4.2715   29.4040    7.8038 N   0  0  0  0  0  0  0  0  0  0  0  0
   -4.6911   28.6493    8.3412 H   0  0  0  0  0  0  0  0  0  0  0  0
   -3.4010   30.2895    8.4683 C   0  0  0  0  0  0  0  0  0  0  0  0
   -2.0456   29.9366    8.4867 C   0  0  0  0  0  0  0  0  0  0  0  0
   -1.1181   30.7503    9.1346 C   0  0  0  0  0  0  0  0  0  0  0  0
    0.1707   30.3873    9.1545 F   0  0  0  0  0  0  0  0  0  0  0  0
   -1.5050   31.9284    9.7594 C   0  0  0  0  0  0  0  0  0  0  0  0
   -2.8448   32.3045    9.7235 C   0  0  0  0  0  0  0  0  0  0  0  0
   -3.7820   31.4944    9.0765 C   0  0  0  0  0  0  0  0  0  0  0  0
   -5.0331   31.9626    8.9967 F   0  0  0  0  0  0  0  0  0  0  0  0
   -5.7228   24.4861    3.1973 C   0  0  0  0  0  0  0  0  0  0  0  0
   -6.2967   24.2081    1.8300 C   0  0  0  0  0  0  0  0  0  0  0  0
   -6.9905   23.0147    1.5850 C   0  0  0  0  0  0  0  0  0  0  0  0
   -7.5308   22.7543    0.3247 C   0  0  0  0  0  0  0  0  0  0  0  0
   -7.3866   23.6851   -0.7015 C   0  0  0  0  0  0  0  0  0  0  0  0
   -6.7025   24.8762   -0.4681 C   0  0  0  0  0  0  0  0  0  0  0  0
   -6.1596   25.1373    0.7912 C   0  0  0  0  0  0  0  0  0  0  0  0
  9 10  2  0  0  0
 10  8  1  0  0  0
  8  1  1  0  0  0
  1  2  1  0  0  0
  2  3  1  0  0  0
  3  4  1  0  0  0
  3  5  1  0  0  0
  5 21  1  0  0  0
 21 22  1  0  0  0
 22 23  2  0  0  0
 23 24  1  0  0  0
 24 25  2  0  0  0
 25 26  1  0  0  0
 26 27  2  0  0  0
  5  6  1  0  0  0
 10 11  1  0  0  0
 11 13  1  0  0  0
 13 14  1  0  0  0
 14 15  2  0  0  0
 15 16  1  0  0  0
 15 17  1  0  0  0
 17 18  2  0  0  0
 18 19  1  0  0  0
 19 20  1  0  0  0
  6  1  1  0  0  0
 19 13  2  0  0  0
 27 22  1  0  0  0
  4  7  1  0  0  0
 11 12  1  0  0  0
M  END
> <minimizedAffinity>
-10.09286

$$$$
OCNT-2316619


 26 29  0  0  0  0  0  0  0  0999 V2000
   -5.9403   32.2360    8.1408 C   0  0  0  0  0  0  0  0  0  0  0  0
   -6.0338   30.7044    8.0068 C   0  0  0  0  0  0  0  0  0  0  0  0
   -6.5090   30.1262    9.3643 C   0  0  0  0  0  0  0  0  0  0  0  0
   -5.5679   28.9683    9.6560 C   0  0  0  0  0  0  0  0  0  0  0  0
   -4.2737   29.4128    9.0058 C   0  0  0  0  0  0  0  0  0  0  0  0
   -4.7466   30.0244    7.7753 N   0  0  0  0  0  0  0  0  0  0  0  0
   -7.0469   30.3950    6.8563 C   0  0  0  0  0  0  0  0  0  0  0  0
   -6.6545   29.3431    5.8373 C   0  0  0  0  0  0  0  0  0  0  0  0
   -6.2665   29.7090    4.5427 C   0  0  0  0  0  0  0  0  0  0  0  0
   -5.9085   28.7386    3.6039 C   0  0  0  0  0  0  0  0  0  0  0  0
   -5.9423   27.3787    3.9373 C   0  0  0  0  0  0  0  0  0  0  0  0
   -6.3325   27.0103    5.2312 C   0  0  0  0  0  0  0  0  0  0  0  0
   -6.6899   27.9822    6.1691 C   0  0  0  0  0  0  0  0  0  0  0  0
   -5.5169   26.3356    2.9385 C   0  0  0  0  0  0  0  0  0  0  0  0
   -6.1412   26.4598    1.7329 F   0  0  0  0  0  0  0  0  0  0  0  0
   -4.1815   26.3659    2.6658 F   0  0  0  0  0  0  0  0  0  0  0  0
   -3.7385   30.5919    6.8848 C   0  0  0  0  0  0  0  0  0  0  0  0
   -2.3892   29.9595    6.8951 C   0  0  0  0  0  0  0  0  0  0  0  0
   -1.2425   30.5130    7.2514 N   0  0  0  0  0  0  0  0  0  0  0  0
   -0.2395   29.5878    7.0739 N   0  0  0  0  0  0  0  0  0  0  0  0
   -0.7872   28.4967    6.5889 C   0  0  0  0  0  0  0  0  0  0  0  0
   -0.2498   27.2486    6.2096 C   0  0  0  0  0  0  0  0  0  0  0  0
   -1.0689   26.3090    5.7207 C   0  0  0  0  0  0  0  0  0  0  0  0
   -2.5080   26.6550    5.6109 C   0  0  0  0  0  0  0  0  0  0  0  0
   -3.0561   27.7802    5.9475 N   0  0  0  0  0  0  0  0  0  0  0  0
   -2.1486   28.6826    6.4423 N   0  0  0  0  0  0  0  0  0  0  0  0
  1  2  1  0  0  0
  2  7  1  0  0  0
  7  8  1  0  0  0
  8  9  1  0  0  0
  9 10  2  0  0  0
 10 11  1  0  0  0
 11 14  1  0  0  0
 14 15  1  0  0  0
 14 16  1  0  0  0
 11 12  2  0  0  0
 12 13  1  0  0  0
  2  3  1  0  0  0
  3  4  1  0  0  0
  4  5  1  0  0  0
  5  6  1  0  0  0
  6 17  1  0  0  0
 17 18  1  0  0  0
 18 19  2  0  0  0
 19 20  1  0  0  0
 20 21  2  0  0  0
 21 22  1  0  0  0
 22 23  2  0  0  0
 23 24  1  0  0  0
 24 25  2  0  0  0
 25 26  1  0  0  0
  6  2  1  0  0  0
 26 18  1  0  0  0
 13  8  2  0  0  0
 26 21  1  0  0  0
M  END
> <minimizedAffinity>
-9.37919

$$$$
OCNT-2316630


 23 25  0  0  0  0  0  0  0  0999 V2000
   -3.9560   26.7565    5.3139 N   0  0  0  0  0  0  0  0  0  0  0  0
   -2.7523   26.9915    5.9114 C   0  0  0  0  0  0  0  0  0  0  0  0
   -2.9473   28.1702    6.5972 C   0  0  0  0  0  0  0  0  0  0  0  0
   -4.2377   28.5936    6.3933 N   0  0  0  0  0  0  0  0  0  0  0  0
   -4.8490   27.7124    5.6134 N   0  0  0  0  0  0  0  0  0  0  0  0
   -1.9840   28.8895    7.4041 C   0  0  0  0  0  0  0  0  0  0  0  0
   -2.4157   29.8346    8.3365 C   0  0  0  0  0  0  0  0  0  0  0  0
   -1.5917   30.5605    9.1375 N   0  0  0  0  0  0  0  0  0  0  0  0
   -0.2671   30.3281    9.0035 C   0  0  0  0  0  0  0  0  0  0  0  0
    0.2562   29.4118    8.1102 C   0  0  0  0  0  0  0  0  0  0  0  0
    1.5780   29.2227    8.0238 F   0  0  0  0  0  0  0  0  0  0  0  0
   -0.6050   28.6829    7.3001 C   0  0  0  0  0  0  0  0  0  0  0  0
   -4.3110   25.6680    4.4304 C   0  0  0  0  0  0  0  0  0  0  0  0
   -4.3872   27.4957    2.8516 O   0  0  0  0  0  0  0  0  0  0  0  0
   -4.8894   26.1679    3.1076 C   0  0  0  0  0  0  0  0  0  0  0  0
   -4.4403   27.5806    1.8774 H   0  0  0  0  0  0  0  0  0  0  0  0
   -4.5040   25.2694    1.9087 C   0  0  0  0  0  0  0  0  0  0  0  0
   -5.7120   24.5893    1.3809 N   0  0  0  0  0  0  0  0  0  0  0  0
   -5.4589   23.1430    1.1734 C   0  0  0  0  0  0  0  0  0  0  0  0
   -6.6751   22.4409    0.5471 C   0  0  0  0  0  0  0  0  0  0  0  0
   -7.0435   23.0481   -0.6988 O   0  0  0  0  0  0  0  0  0  0  0  0
   -7.3285   24.4380   -0.5071 C   0  0  0  0  0  0  0  0  0  0  0  0
   -6.1119   25.1728    0.0790 C   0  0  0  0  0  0  0  0  0  0  0  0
 14 15  1  0  0  0
 15 17  1  0  0  0
 17 18  1  0  0  0
 18 19  1  0  0  0
 19 20  1  0  0  0
 20 21  1  0  0  0
 21 22  1  0  0  0
 22 23  1  0  0  0
 15 13  1  0  0  0
 13  1  1  0  0  0
  1  2  1  0  0  0
  2  3  2  0  0  0
  3  6  1  0  0  0
  6  7  2  0  0  0
  7  8  1  0  0  0
  8  9  2  0  0  0
  9 10  1  0  0  0
 10 11  1  0  0  0
 10 12  2  0  0  0
  3  4  1  0  0  0
  4  5  2  0  0  0
 23 18  1  0  0  0
  5  1  1  0  0  0
 12  6  1  0  0  0
 14 16  1  0  0  0
M  END
> <minimizedAffinity>
-7.87190

$$$$
OCNT-2316644


 26 27  0  0  0  0  0  0  0  0999 V2000
   -5.5659   27.8414    4.7398 C   0  0  0  0  0  0  0  0  0  0  0  0
   -6.5602   29.0113    5.0543 C   0  0  0  0  0  0  0  0  0  0  0  0
   -6.1360   29.6598    3.7214 C   0  0  0  0  0  0  0  0  0  0  0  0
   -5.7217   28.2559    3.2353 C   0  0  0  0  0  0  0  0  0  0  0  0
   -3.8467   28.5336    6.4667 C   0  0  0  0  0  0  0  0  0  0  0  0
   -4.6385   28.7625    7.3665 O   0  0  0  0  0  0  0  0  0  0  0  0
   -4.1765   28.1128    5.2095 N   0  0  0  0  0  0  0  0  0  0  0  0
   -3.3762   27.9563    4.6116 H   0  0  0  0  0  0  0  0  0  0  0  0
   -2.5007   28.6501    6.5370 O   0  0  0  0  0  0  0  0  0  0  0  0
   -2.5105   31.1129    6.5438 C   0  0  0  0  0  0  0  0  0  0  0  0
   -1.8905   29.8320    7.1142 C   0  0  0  0  0  0  0  0  0  0  0  0
   -0.4191   29.7611    6.6767 C   0  0  0  0  0  0  0  0  0  0  0  0
   -1.9490   29.8014    8.6453 C   0  0  0  0  0  0  0  0  0  0  0  0
   -5.9150   26.3902    5.0994 C   0  0  0  0  0  0  0  0  0  0  0  0
   -4.7448   25.4101    4.9504 C   0  0  0  0  0  0  0  0  0  0  0  0
   -4.7079   24.7566    3.6412 N   0  0  0  0  0  0  0  0  0  0  0  0
   -4.3495   25.4217    2.9459 H   0  0  0  0  0  0  0  0  0  0  0  0
   -6.0154   24.2742    3.1746 C   0  0  0  0  0  0  0  0  0  0  0  0
   -6.1590   24.5027    1.6626 C   0  0  0  0  0  0  0  0  0  0  0  0
   -5.7719   25.4712    1.0306 O   0  0  0  0  0  0  0  0  0  0  0  0
   -6.8592   23.4400    1.1322 N   0  0  0  0  0  0  0  0  0  0  0  0
   -7.2416   22.4882    2.1321 C   0  0  0  0  0  0  0  0  0  0  0  0
   -6.2701   22.7428    3.2985 C   0  0  0  0  0  0  0  0  0  0  0  0
   -4.9936   21.8992    3.1010 C   0  0  0  0  0  0  0  0  0  0  0  0
   -6.9214   22.3630    4.6335 C   0  0  0  0  0  0  0  0  0  0  0  0
   -7.1249   23.4263    0.1561 H   0  0  0  0  0  0  0  0  0  0  0  0
 10 11  1  0  0  0
 11 12  1  0  0  0
 11 13  1  0  0  0
 11  9  1  0  0  0
  9  5  1  0  0  0
  5  6  2  0  0  0
  5  7  1  0  0  0
  7  1  1  0  0  0
  1 14  1  0  0  0
 14 15  1  0  0  0
 15 16  1  0  0  0
 16 18  1  0  0  0
 18 19  1  0  0  0
 19 20  2  0  0  0
 19 21  1  0  0  0
 21 22  1  0  0  0
 22 23  1  0  0  0
 23 24  1  0  0  0
 23 25  1  0  0  0
  1  2  1  0  0  0
  2  3  1  0  0  0
  3  4  1  0  0  0
  4  1  1  0  0  0
 23 18  1  0  0  0
  7  8  1  0  0  0
 16 17  1  0  0  0
 21 26  1  0  0  0
M  END
> <minimizedAffinity>
-7.67252

$$$$
OCNT-2316654


 29 32  0  0  0  0  0  0  0  0999 V2000
   -4.3300   25.4575    3.2541 C   0  0  0  0  0  0  0  0  0  0  0  0
   -3.4510   25.8738    2.5088 O   0  0  0  0  0  0  0  0  0  0  0  0
   -4.5598   25.8826    4.5497 N   0  0  0  0  0  0  0  0  0  0  0  0
   -5.4156   25.5433    4.9695 H   0  0  0  0  0  0  0  0  0  0  0  0
   -5.4040   22.9839    4.9489 C   0  0  0  0  0  0  0  0  0  0  0  0
   -5.7530   23.3923    3.5618 C   0  0  0  0  0  0  0  0  0  0  0  0
   -5.3100   24.4657    2.7975 C   0  0  0  0  0  0  0  0  0  0  0  0
   -6.0081   24.3958    1.5406 C   0  0  0  0  0  0  0  0  0  0  0  0
   -6.0559   25.2063    0.3832 C   0  0  0  0  0  0  0  0  0  0  0  0
   -6.8615   24.8288   -0.6978 C   0  0  0  0  0  0  0  0  0  0  0  0
   -7.6253   23.6672   -0.6405 C   0  0  0  0  0  0  0  0  0  0  0  0
   -7.6172   22.8591    0.4986 C   0  0  0  0  0  0  0  0  0  0  0  0
   -6.8074   23.2526    1.5713 C   0  0  0  0  0  0  0  0  0  0  0  0
   -6.6389   22.6705    2.8044 N   0  0  0  0  0  0  0  0  0  0  0  0
   -7.1184   21.8343    3.1094 H   0  0  0  0  0  0  0  0  0  0  0  0
   -3.8051   26.7956    5.3129 C   0  0  0  0  0  0  0  0  0  0  0  0
   -4.2831   28.0419    5.7280 C   0  0  0  0  0  0  0  0  0  0  0  0
   -3.4964   28.9376    6.4948 C   0  0  0  0  0  0  0  0  0  0  0  0
   -2.1826   28.5355    6.8141 C   0  0  0  0  0  0  0  0  0  0  0  0
   -1.0859   29.0931    7.5149 C   0  0  0  0  0  0  0  0  0  0  0  0
   -0.0229   28.2863    7.5376 N   0  0  0  0  0  0  0  0  0  0  0  0
   -0.4342   27.2062    6.8539 N   0  0  0  0  0  0  0  0  0  0  0  0
   -1.7209   27.2957    6.3891 C   0  0  0  0  0  0  0  0  0  0  0  0
   -2.4993   26.4046    5.6429 C   0  0  0  0  0  0  0  0  0  0  0  0
    0.2162   26.4376    6.7367 H   0  0  0  0  0  0  0  0  0  0  0  0
   -4.0592   30.2775    6.8901 C   0  0  0  0  0  0  0  0  0  0  0  0
   -4.0198   30.4981    8.2346 F   0  0  0  0  0  0  0  0  0  0  0  0
   -3.3754   31.3106    6.3254 F   0  0  0  0  0  0  0  0  0  0  0  0
   -5.3612   30.4469    6.5301 F   0  0  0  0  0  0  0  0  0  0  0  0
  5  6  1  0  0  0
  6  7  2  0  0  0
  7  1  1  0  0  0
  1  2  2  0  0  0
  1  3  1  0  0  0
  3 16  1  0  0  0
 16 17  2  0  0  0
 17 18  1  0  0  0
 18 26  1  0  0  0
 26 27  1  0  0  0
 26 28  1  0  0  0
 26 29  1  0  0  0
 18 19  2  0  0  0
 19 20  1  0  0  0
 20 21  2  0  0  0
 21 22  1  0  0  0
 22 23  1  0  0  0
 23 24  2  0  0  0
  7  8  1  0  0  0
  8  9  2  0  0  0
  9 10  1  0  0  0
 10 11  2  0  0  0
 11 12  1  0  0  0
 12 13  2  0  0  0
 13 14  1  0  0  0
 14  6  1  0  0  0
 24 16  1  0  0  0
 13  8  1  0  0  0
 23 19  1  0  0  0
  3  4  1  0  0  0
 22 25  1  0  0  0
 14 15  1  0  0  0
M  END
> <minimizedAffinity>
-10.01725

$$$$
OCNT-2316656


 26 29  0  0  0  0  0  0  0  0999 V2000
   -3.1384   27.9310    6.0726 N   0  0  0  0  0  0  0  0  0  0  0  0
   -3.1460   26.6261    5.6554 C   0  0  0  0  0  0  0  0  0  0  0  0
   -2.3964   25.7873    6.1478 O   0  0  0  0  0  0  0  0  0  0  0  0
   -4.0271   26.3485    4.6214 N   0  0  0  0  0  0  0  0  0  0  0  0
   -4.8062   27.3661    3.9129 C   0  0  0  0  0  0  0  0  0  0  0  0
   -5.7500   26.7730    2.8746 C   0  0  0  0  0  0  0  0  0  0  0  0
   -5.0030   25.8733    1.8747 C   0  0  0  0  0  0  0  0  0  0  0  0
   -3.8659   25.0710    2.5360 C   0  0  0  0  0  0  0  0  0  0  0  0
   -4.0325   25.0008    4.0493 C   0  0  0  0  0  0  0  0  0  0  0  0
   -4.0463   28.3742    6.0829 H   0  0  0  0  0  0  0  0  0  0  0  0
   -4.6327   30.0917    9.2722 C   0  0  0  0  0  0  0  0  0  0  0  0
   -3.5550   30.8472    9.5245 N   0  0  0  0  0  0  0  0  0  0  0  0
   -2.6265   30.2423    8.7694 N   0  0  0  0  0  0  0  0  0  0  0  0
   -1.2896   30.7735    8.6248 C   0  0  0  0  0  0  0  0  0  0  0  0
   -0.3585   29.7863    7.9202 C   0  0  0  0  0  0  0  0  0  0  0  0
   -1.0555   29.1203    6.7279 C   0  0  0  0  0  0  0  0  0  0  0  0
   -2.3016   28.3379    7.1864 C   0  0  0  0  0  0  0  0  0  0  0  0
   -3.1433   29.1763    8.0937 C   0  0  0  0  0  0  0  0  0  0  0  0
   -4.4230   29.0589    8.3897 N   0  0  0  0  0  0  0  0  0  0  0  0
   -6.4922   29.1254   10.6237 C   0  0  0  0  0  0  0  0  0  0  0  0
   -5.9568   30.3464    9.8930 C   0  0  0  0  0  0  0  0  0  0  0  0
   -5.9793   24.9469    1.1930 C   0  0  0  0  0  0  0  0  0  0  0  0
   -6.4531   23.8431    1.7351 N   0  0  0  0  0  0  0  0  0  0  0  0
   -7.3102   23.2192    0.8507 C   0  0  0  0  0  0  0  0  0  0  0  0
   -7.4847   23.8564   -0.3580 C   0  0  0  0  0  0  0  0  0  0  0  0
   -6.5469   25.2898   -0.3965 S   0  0  0  0  0  0  0  0  0  0  0  0
 20 21  1  0  0  0
 21 11  1  0  0  0
 11 12  2  0  0  0
 12 13  1  0  0  0
 13 14  1  0  0  0
 14 15  1  0  0  0
 15 16  1  0  0  0
 16 17  1  0  0  0
 17  1  1  0  0  0
  1  2  1  0  0  0
  2  3  2  0  0  0
  2  4  1  0  0  0
  4  5  1  0  0  0
  5  6  1  0  0  0
  6  7  1  0  0  0
  7 22  1  0  0  0
 22 23  2  0  0  0
 23 24  1  0  0  0
 24 25  2  0  0  0
 25 26  1  0  0  0
  7  8  1  0  0  0
  8  9  1  0  0  0
 17 18  1  0  0  0
 18 19  2  0  0  0
 19 11  1  0  0  0
 18 13  1  0  0  0
  9  4  1  0  0  0
 26 22  1  0  0  0
  1 10  1  0  0  0
M  END
> <minimizedAffinity>
-9.35764

$$$$
OCNT-2316657


 25 28  0  0  0  0  0  0  0  0999 V2000
   -3.9778   28.2598    5.8052 N   0  0  0  0  0  0  0  0  0  0  0  0
   -5.1322   27.5434    5.6488 C   0  0  0  0  0  0  0  0  0  0  0  0
   -6.2308   27.8536    6.0967 O   0  0  0  0  0  0  0  0  0  0  0  0
   -4.9526   26.3844    4.9225 N   0  0  0  0  0  0  0  0  0  0  0  0
   -4.0056   26.0973    3.8449 C   0  0  0  0  0  0  0  0  0  0  0  0
   -5.1464   25.3929    3.1619 C   0  0  0  0  0  0  0  0  0  0  0  0
   -5.6183   25.9497    1.8317 C   0  0  0  0  0  0  0  0  0  0  0  0
   -4.8044   24.8087    1.1704 C   0  0  0  0  0  0  0  0  0  0  0  0
   -4.8809   24.0494    2.5198 C   0  0  0  0  0  0  0  0  0  0  0  0
   -6.0378   25.5414    4.3689 C   0  0  0  0  0  0  0  0  0  0  0  0
   -3.0973   27.8585    5.5383 H   0  0  0  0  0  0  0  0  0  0  0  0
   -6.4354   24.2568    5.2189 C   0  0  0  0  0  0  0  0  0  0  0  0
   -7.7860   23.8799    5.3717 C   0  0  0  0  0  0  0  0  0  0  0  0
   -8.1667   22.7483    6.0991 C   0  0  0  0  0  0  0  0  0  0  0  0
   -7.1996   21.9526    6.7019 C   0  0  0  0  0  0  0  0  0  0  0  0
   -5.8570   22.2911    6.5780 C   0  0  0  0  0  0  0  0  0  0  0  0
   -5.4860   23.4248    5.8483 C   0  0  0  0  0  0  0  0  0  0  0  0
   -3.4741   30.8705    7.8881 N   0  0  0  0  0  0  0  0  0  0  0  0
   -4.0166   31.5721    6.8823 N   0  0  0  0  0  0  0  0  0  0  0  0
   -4.2872   30.6671    5.9513 N   0  0  0  0  0  0  0  0  0  0  0  0
   -3.8888   29.4586    6.4504 C   0  0  0  0  0  0  0  0  0  0  0  0
   -3.3581   29.5433    7.6773 N   0  0  0  0  0  0  0  0  0  0  0  0
   -3.6937   32.8830    9.2893 C   0  0  0  0  0  0  0  0  0  0  0  0
   -3.0392   31.5136    9.1169 C   0  0  0  0  0  0  0  0  0  0  0  0
   -1.5164   31.6130    9.1836 C   0  0  0  0  0  0  0  0  0  0  0  0
 23 24  1  0  0  0
 24 25  1  0  0  0
 24 18  1  0  0  0
 18 19  1  0  0  0
 19 20  2  0  0  0
 20 21  1  0  0  0
 21  1  1  0  0  0
  1  2  1  0  0  0
  2  3  2  0  0  0
  2  4  1  0  0  0
  4  5  1  0  0  0
  5  6  1  0  0  0
  6  7  1  0  0  0
  7  8  1  0  0  0
  8  9  1  0  0  0
  6 10  1  0  0  0
 10 12  1  0  0  0
 12 13  2  0  0  0
 13 14  1  0  0  0
 14 15  2  0  0  0
 15 16  1  0  0  0
 16 17  2  0  0  0
 21 22  2  0  0  0
 22 18  1  0  0  0
 10  4  1  0  0  0
 17 12  1  0  0  0
  9  6  1  0  0  0
  1 11  1  0  0  0
M  END
> <minimizedAffinity>
-9.81993

$$$$
OCNT-2316664


 25 28  0  0  0  0  0  0  0  0999 V2000
   -3.8750   29.0951    6.3247 N   0  0  0  0  0  0  0  0  0  0  0  0
   -4.8223   30.0970    5.8081 C   0  0  0  0  0  0  0  0  0  0  0  0
   -5.8954   29.5919    4.8625 C   0  0  0  0  0  0  0  0  0  0  0  0
   -6.4724   28.2985    5.3851 C   0  0  0  0  0  0  0  0  0  0  0  0
   -5.3822   27.2429    5.5100 C   0  0  0  0  0  0  0  0  0  0  0  0
   -4.0411   27.7238    6.0609 C   0  0  0  0  0  0  0  0  0  0  0  0
   -3.1831   26.8600    6.2716 O   0  0  0  0  0  0  0  0  0  0  0  0
   -2.2261   31.8618   10.1919 C   0  0  0  0  0  0  0  0  0  0  0  0
   -1.9290   30.9629    9.0262 C   0  0  0  0  0  0  0  0  0  0  0  0
   -0.6207   30.5964    8.7213 C   0  0  0  0  0  0  0  0  0  0  0  0
   -0.3780   29.7609    7.6398 C   0  0  0  0  0  0  0  0  0  0  0  0
   -1.4419   29.2781    6.8662 C   0  0  0  0  0  0  0  0  0  0  0  0
   -2.7829   29.6018    7.1520 C   0  0  0  0  0  0  0  0  0  0  0  0
   -2.9894   30.4649    8.2421 C   0  0  0  0  0  0  0  0  0  0  0  0
   -5.1733   26.4813    4.2848 N   0  0  0  0  0  0  0  0  0  0  0  0
   -5.8551   25.3728    3.8673 C   0  0  0  0  0  0  0  0  0  0  0  0
   -5.3035   25.0911    2.6419 C   0  0  0  0  0  0  0  0  0  0  0  0
   -4.3440   26.0188    2.3489 N   0  0  0  0  0  0  0  0  0  0  0  0
   -4.2715   26.8704    3.3626 N   0  0  0  0  0  0  0  0  0  0  0  0
   -5.6908   23.9244    1.7152 C   0  0  0  0  0  0  0  0  0  0  0  0
   -5.5702   22.5746    1.9599 C   0  0  0  0  0  0  0  0  0  0  0  0
   -6.0313   21.8401    0.8954 N   0  0  0  0  0  0  0  0  0  0  0  0
   -6.4201   22.7296    0.0088 C   0  0  0  0  0  0  0  0  0  0  0  0
   -6.2308   24.0060    0.4595 N   0  0  0  0  0  0  0  0  0  0  0  0
   -6.5485   25.2072   -0.2703 C   0  0  0  0  0  0  0  0  0  0  0  0
  8  9  1  0  0  0
  9 10  2  0  0  0
 10 11  1  0  0  0
 11 12  2  0  0  0
 12 13  1  0  0  0
 13  1  1  0  0  0
  1  2  1  0  0  0
  2  3  1  0  0  0
  3  4  1  0  0  0
  4  5  1  0  0  0
  5 15  1  0  0  0
 15 16  1  0  0  0
 16 17  2  0  0  0
 17 20  1  0  0  0
 20 21  2  0  0  0
 21 22  1  0  0  0
 22 23  2  0  0  0
 23 24  1  0  0  0
 24 25  1  0  0  0
 17 18  1  0  0  0
 18 19  2  0  0  0
  5  6  1  0  0  0
  6  7  2  0  0  0
 13 14  2  0  0  0
 14  9  1  0  0  0
  6  1  1  0  0  0
 19 15  1  0  0  0
 24 20  1  0  0  0
M  END
> <minimizedAffinity>
-9.02481

$$$$
OCNT-2316676


 24 27  0  0  0  0  0  0  0  0999 V2000
   -4.7812   29.3718    6.7949 C   0  0  0  0  0  0  0  0  0  0  0  0
   -4.4784   28.5390    5.8269 N   0  0  0  0  0  0  0  0  0  0  0  0
   -5.6653   27.8643    5.6271 C   0  0  0  0  0  0  0  0  0  0  0  0
   -6.6583   28.2642    6.4396 N   0  0  0  0  0  0  0  0  0  0  0  0
   -6.0743   29.2626    7.2136 O   0  0  0  0  0  0  0  0  0  0  0  0
   -4.1230   32.2836    9.1473 C   0  0  0  0  0  0  0  0  0  0  0  0
   -4.7433   31.6048    7.9191 C   0  0  0  0  0  0  0  0  0  0  0  0
   -3.9249   30.3831    7.4705 C   0  0  0  0  0  0  0  0  0  0  0  0
   -3.1538   29.7818    8.6438 C   0  0  0  0  0  0  0  0  0  0  0  0
   -2.2415   30.8286    9.2774 C   0  0  0  0  0  0  0  0  0  0  0  0
   -2.7025   32.1671    9.0883 O   0  0  0  0  0  0  0  0  0  0  0  0
   -5.0152   34.4139    8.0045 C   0  0  0  0  0  0  0  0  0  0  0  0
   -4.5130   33.7608    9.2866 C   0  0  0  0  0  0  0  0  0  0  0  0
   -5.8049   26.8169    4.6205 C   0  0  0  0  0  0  0  0  0  0  0  0
   -6.1570   25.5091    4.9765 C   0  0  0  0  0  0  0  0  0  0  0  0
   -6.2890   24.5087    4.0035 C   0  0  0  0  0  0  0  0  0  0  0  0
   -6.0702   24.7993    2.6495 C   0  0  0  0  0  0  0  0  0  0  0  0
   -5.7176   26.1073    2.2889 C   0  0  0  0  0  0  0  0  0  0  0  0
   -5.5874   27.1027    3.2670 C   0  0  0  0  0  0  0  0  0  0  0  0
   -6.2041   23.7821    1.6589 N   0  0  0  0  0  0  0  0  0  0  0  0
   -5.7037   22.4970    1.7023 C   0  0  0  0  0  0  0  0  0  0  0  0
   -6.0864   21.8936    0.5278 C   0  0  0  0  0  0  0  0  0  0  0  0
   -6.8065   22.7547   -0.2458 N   0  0  0  0  0  0  0  0  0  0  0  0
   -6.8623   23.8701    0.4491 C   0  0  0  0  0  0  0  0  0  0  0  0
 12 13  1  0  0  0
 13  6  1  0  0  0
  6  7  1  0  0  0
  7  8  1  0  0  0
  8  1  1  0  0  0
  1  2  2  0  0  0
  2  3  1  0  0  0
  3 14  1  0  0  0
 14 15  1  0  0  0
 15 16  2  0  0  0
 16 17  1  0  0  0
 17 20  1  0  0  0
 20 21  1  0  0  0
 21 22  2  0  0  0
 22 23  1  0  0  0
 23 24  2  0  0  0
 17 18  2  0  0  0
 18 19  1  0  0  0
  3  4  2  0  0  0
  4  5  1  0  0  0
  8  9  1  0  0  0
  9 10  1  0  0  0
 10 11  1  0  0  0
 11  6  1  0  0  0
  5  1  1  0  0  0
 19 14  2  0  0  0
 24 20  1  0  0  0
M  END
> <minimizedAffinity>
-9.36035

$$$$
OCNT-2316682


 23 25  0  0  0  0  0  0  0  0999 V2000
   -3.7824   26.4058    3.3326 C   0  0  0  0  0  0  0  0  0  0  0  0
   -3.8235   25.5097    2.0986 C   0  0  0  0  0  0  0  0  0  0  0  0
   -5.2404   25.5611    1.7211 N   0  0  0  0  0  0  0  0  0  0  0  0
   -5.5845   24.5569    0.7231 C   0  0  0  0  0  0  0  0  0  0  0  0
   -5.9644   25.3663    2.9851 C   0  0  0  0  0  0  0  0  0  0  0  0
   -5.1314   26.1340    4.0320 C   0  0  0  0  0  0  0  0  0  0  0  0
   -5.7983   27.4037    4.5312 C   0  0  0  0  0  0  0  0  0  0  0  0
   -6.4295   27.4143    5.7838 C   0  0  0  0  0  0  0  0  0  0  0  0
   -7.0326   28.5759    6.2672 C   0  0  0  0  0  0  0  0  0  0  0  0
   -7.0138   29.7421    5.5057 C   0  0  0  0  0  0  0  0  0  0  0  0
   -6.3888   29.7482    4.2616 C   0  0  0  0  0  0  0  0  0  0  0  0
   -5.7830   28.5882    3.7779 C   0  0  0  0  0  0  0  0  0  0  0  0
   -2.6738   26.6609    5.4712 N   0  0  0  0  0  0  0  0  0  0  0  0
   -2.5973   26.0909    4.2260 C   0  0  0  0  0  0  0  0  0  0  0  0
   -1.6436   25.4046    3.8715 O   0  0  0  0  0  0  0  0  0  0  0  0
   -3.5372   27.0911    5.7889 H   0  0  0  0  0  0  0  0  0  0  0  0
   -1.6992   26.3659    6.4944 C   0  0  0  0  0  0  0  0  0  0  0  0
   -0.5176   30.5503    8.9826 C   0  0  0  0  0  0  0  0  0  0  0  0
   -0.5698   29.4737    8.0278 N   0  0  0  0  0  0  0  0  0  0  0  0
    0.2519   29.3140    6.9515 C   0  0  0  0  0  0  0  0  0  0  0  0
   -0.0448   28.2244    6.2796 N   0  0  0  0  0  0  0  0  0  0  0  0
   -1.1086   27.6527    6.9551 C   0  0  0  0  0  0  0  0  0  0  0  0
   -1.4482   28.4279    8.0456 C   0  0  0  0  0  0  0  0  0  0  0  0
 18 19  1  0  0  0
 19 20  1  0  0  0
 20 21  2  0  0  0
 21 22  1  0  0  0
 22 17  1  0  0  0
 17 13  1  0  0  0
 13 14  1  0  0  0
 14 15  2  0  0  0
 14  1  1  0  0  0
  1  2  1  0  0  0
  2  3  1  0  0  0
  3  4  1  0  0  0
  3  5  1  0  0  0
  5  6  1  0  0  0
  6  7  1  0  0  0
  7  8  2  0  0  0
  8  9  1  0  0  0
  9 10  2  0  0  0
 10 11  1  0  0  0
 11 12  2  0  0  0
 22 23  2  0  0  0
 23 19  1  0  0  0
  6  1  1  0  0  0
 12  7  1  0  0  0
 13 16  1  0  0  0
M  END
> <minimizedAffinity>
-8.27993

$$$$
OCNT-2316696


 27 30  0  0  0  0  0  0  0  0999 V2000
   -6.0481   29.7582    7.6008 N   0  0  0  0  0  0  0  0  0  0  0  0
   -5.5897   28.8485    7.6322 H   0  0  0  0  0  0  0  0  0  0  0  0
   -1.9245   28.6071    7.4066 C   0  0  0  0  0  0  0  0  0  0  0  0
   -1.0726   29.1762    8.3449 C   0  0  0  0  0  0  0  0  0  0  0  0
   -1.4715   30.3240    9.0288 C   0  0  0  0  0  0  0  0  0  0  0  0
   -2.7193   30.9088    8.7826 C   0  0  0  0  0  0  0  0  0  0  0  0
   -2.9403   32.0682    9.4792 O   0  0  0  0  0  0  0  0  0  0  0  0
   -3.4184   33.1169    8.6398 C   0  0  0  0  0  0  0  0  0  0  0  0
   -4.9323   33.1849    8.7055 C   0  0  0  0  0  0  0  0  0  0  0  0
   -5.5994   31.8114    8.7097 C   0  0  0  0  0  0  0  0  0  0  0  0
   -5.0493   30.8443    7.6421 C   0  0  0  0  0  0  0  0  0  0  0  0
   -3.6352   30.3169    7.8978 C   0  0  0  0  0  0  0  0  0  0  0  0
   -3.1834   29.1809    7.1879 C   0  0  0  0  0  0  0  0  0  0  0  0
   -2.6750   27.0983    5.7309 C   0  0  0  0  0  0  0  0  0  0  0  0
   -1.6619   27.5029    6.6437 O   0  0  0  0  0  0  0  0  0  0  0  0
   -6.9352   29.8441    6.4468 C   0  0  0  0  0  0  0  0  0  0  0  0
   -6.5271   28.8474    5.3872 C   0  0  0  0  0  0  0  0  0  0  0  0
   -6.2034   29.2709    4.0923 C   0  0  0  0  0  0  0  0  0  0  0  0
   -5.8165   28.3452    3.1193 C   0  0  0  0  0  0  0  0  0  0  0  0
   -5.7397   26.9801    3.4304 C   0  0  0  0  0  0  0  0  0  0  0  0
   -6.0562   26.5502    4.7251 C   0  0  0  0  0  0  0  0  0  0  0  0
   -6.4460   27.4813    5.6932 C   0  0  0  0  0  0  0  0  0  0  0  0
   -5.3378   26.0594    2.4289 N   0  0  0  0  0  0  0  0  0  0  0  0
   -4.1931   25.3009    2.3590 C   0  0  0  0  0  0  0  0  0  0  0  0
   -4.1893   24.5662    1.2695 N   0  0  0  0  0  0  0  0  0  0  0  0
   -5.3672   24.9055    0.6801 C   0  0  0  0  0  0  0  0  0  0  0  0
   -6.1029   25.8020    1.3366 N   0  0  0  0  0  0  0  0  0  0  0  0
 14 15  1  0  0  0
 15  3  1  0  0  0
  3  4  1  0  0  0
  4  5  2  0  0  0
  5  6  1  0  0  0
  6  7  1  0  0  0
  7  8  1  0  0  0
  8  9  1  0  0  0
  9 10  1  0  0  0
 10 11  1  0  0  0
 11  1  1  0  0  0
  1 16  1  0  0  0
 16 17  1  0  0  0
 17 18  1  0  0  0
 18 19  2  0  0  0
 19 20  1  0  0  0
 20 23  1  0  0  0
 23 24  1  0  0  0
 24 25  2  0  0  0
 25 26  1  0  0  0
 26 27  2  0  0  0
 20 21  2  0  0  0
 21 22  1  0  0  0
 11 12  1  0  0  0
 12 13  1  0  0  0
 13  3  2  0  0  0
 12  6  2  0  0  0
 22 17  2  0  0  0
 27 23  1  0  0  0
  1  2  1  0  0  0
M  END
> <minimizedAffinity>
-9.47274

$$$$
OCNT-2316701


 24 26  0  0  0  0  0  0  0  0999 V2000
   -5.0719   28.4790    5.8337 N   0  0  0  0  0  0  0  0  0  0  0  0
   -5.6007   28.3382    4.5656 C   0  0  0  0  0  0  0  0  0  0  0  0
   -6.1060   29.2226    3.8857 O   0  0  0  0  0  0  0  0  0  0  0  0
   -4.8122   27.6450    6.3520 H   0  0  0  0  0  0  0  0  0  0  0  0
   -5.5833   26.9635    4.0092 C   0  0  0  0  0  0  0  0  0  0  0  0
   -5.2817   25.8516    4.7932 C   0  0  0  0  0  0  0  0  0  0  0  0
   -5.2482   24.5652    4.3661 N   0  0  0  0  0  0  0  0  0  0  0  0
   -5.5140   24.4418    3.0496 C   0  0  0  0  0  0  0  0  0  0  0  0
   -5.5364   23.2551    2.3816 O   0  0  0  0  0  0  0  0  0  0  0  0
   -5.8345   23.4750    1.0435 N   0  0  0  0  0  0  0  0  0  0  0  0
   -5.9863   24.8002    0.9188 C   0  0  0  0  0  0  0  0  0  0  0  0
   -6.3120   25.3956   -0.3973 C   0  0  0  0  0  0  0  0  0  0  0  0
   -5.8016   25.4640    2.1562 C   0  0  0  0  0  0  0  0  0  0  0  0
   -5.8357   26.7795    2.6434 C   0  0  0  0  0  0  0  0  0  0  0  0
   -4.8869   32.0438    8.1153 C   0  0  0  0  0  0  0  0  0  0  0  0
   -6.0582   31.2959    8.0296 C   0  0  0  0  0  0  0  0  0  0  0  0
   -6.0696   30.1293    7.2650 C   0  0  0  0  0  0  0  0  0  0  0  0
   -7.2059   29.4166    7.1937 F   0  0  0  0  0  0  0  0  0  0  0  0
   -4.9372   29.6785    6.5715 C   0  0  0  0  0  0  0  0  0  0  0  0
   -3.7668   30.4254    6.6619 C   0  0  0  0  0  0  0  0  0  0  0  0
   -3.7521   31.5942    7.4268 C   0  0  0  0  0  0  0  0  0  0  0  0
   -2.6095   32.2945    7.4960 F   0  0  0  0  0  0  0  0  0  0  0  0
   -4.9942   34.4243    8.1474 C   0  0  0  0  0  0  0  0  0  0  0  0
   -4.7324   33.2024    8.8256 O   0  0  0  0  0  0  0  0  0  0  0  0
 23 24  1  0  0  0
 24 15  1  0  0  0
 15 16  1  0  0  0
 16 17  2  0  0  0
 17 18  1  0  0  0
 17 19  1  0  0  0
 19  1  1  0  0  0
  1  2  1  0  0  0
  2  3  2  0  0  0
  2  5  1  0  0  0
  5  6  2  0  0  0
  6  7  1  0  0  0
  7  8  2  0  0  0
  8  9  1  0  0  0
  9 10  1  0  0  0
 10 11  2  0  0  0
 11 12  1  0  0  0
 11 13  1  0  0  0
 13 14  2  0  0  0
 19 20  2  0  0  0
 20 21  1  0  0  0
 21 22  1  0  0  0
 21 15  2  0  0  0
 14  5  1  0  0  0
 13  8  1  0  0  0
  1  4  1  0  0  0
M  END
> <minimizedAffinity>
-8.67193

$$$$
OCNT-2316720


 35 38  0  0  0  0  0  0  0  0999 V2000
   -1.2304   30.3729    6.4718 O   0  0  0  0  0  0  0  0  0  0  0  0
   -1.3146   29.6175    7.4316 C   0  0  0  0  0  0  0  0  0  0  0  0
   -1.2432   30.0559    8.7391 N   0  0  0  0  0  0  0  0  0  0  0  0
   -1.4964   28.2536    7.3942 N   0  0  0  0  0  0  0  0  0  0  0  0
   -0.7697   29.4185    9.3667 H   0  0  0  0  0  0  0  0  0  0  0  0
   -1.8645   27.8609    8.2481 H   0  0  0  0  0  0  0  0  0  0  0  0
   -1.4159   27.4145    6.2653 C   0  0  0  0  0  0  0  0  0  0  0  0
   -0.2060   27.0707    5.6488 C   0  0  0  0  0  0  0  0  0  0  0  0
   -0.1834   26.1796    4.5714 C   0  0  0  0  0  0  0  0  0  0  0  0
   -1.3722   25.6349    4.0887 C   0  0  0  0  0  0  0  0  0  0  0  0
   -2.5868   25.9912    4.6839 C   0  0  0  0  0  0  0  0  0  0  0  0
   -2.6090   26.8641    5.7818 C   0  0  0  0  0  0  0  0  0  0  0  0
   -3.8454   25.4151    4.1416 C   0  0  0  0  0  0  0  0  0  0  0  0
   -4.8463   25.4154    4.8510 O   0  0  0  0  0  0  0  0  0  0  0  0
   -3.7280   24.8991    2.8708 N   0  0  0  0  0  0  0  0  0  0  0  0
   -2.8169   24.8414    2.4355 H   0  0  0  0  0  0  0  0  0  0  0  0
   -4.7150   24.2994    2.0892 C   0  0  0  0  0  0  0  0  0  0  0  0
   -5.0299   22.9449    2.1279 C   0  0  0  0  0  0  0  0  0  0  0  0
   -6.0350   22.4604    1.2876 C   0  0  0  0  0  0  0  0  0  0  0  0
   -6.6941   23.3419    0.4403 C   0  0  0  0  0  0  0  0  0  0  0  0
   -7.9305   22.7909   -0.6128 Cl  0  0  0  0  0  0  0  0  0  0  0  0
   -6.3226   24.6757    0.4687 C   0  0  0  0  0  0  0  0  0  0  0  0
   -5.3530   25.1729    1.2753 N   0  0  0  0  0  0  0  0  0  0  0  0
   -0.9132   31.4460    9.0079 C   0  0  0  0  0  0  0  0  0  0  0  0
   -2.0854   32.3738    8.6426 C   0  0  0  0  0  0  0  0  0  0  0  0
   -3.0829   32.5092    9.7322 N   0  0  0  0  0  0  0  0  0  0  0  0
   -4.1575   33.4787    9.4414 C   0  0  0  0  0  0  0  0  0  0  0  0
   -5.0490   33.1035    8.2496 C   0  0  0  0  0  0  0  0  0  0  0  0
   -5.4364   31.6444    8.2516 C   0  0  0  0  0  0  0  0  0  0  0  0
   -6.4371   31.1861    7.3864 C   0  0  0  0  0  0  0  0  0  0  0  0
   -6.7740   29.8294    7.3527 C   0  0  0  0  0  0  0  0  0  0  0  0
   -6.1190   28.9278    8.1821 C   0  0  0  0  0  0  0  0  0  0  0  0
   -5.1156   29.3749    9.0397 C   0  0  0  0  0  0  0  0  0  0  0  0
   -4.7532   30.7297    9.0749 C   0  0  0  0  0  0  0  0  0  0  0  0
   -3.6953   31.2011   10.0505 C   0  0  0  0  0  0  0  0  0  0  0  0
  1  2  2  0  0  0
  2  3  1  0  0  0
  3 24  1  0  0  0
 24 25  1  0  0  0
 25 26  1  0  0  0
 26 27  1  0  0  0
 27 28  1  0  0  0
 28 29  1  0  0  0
 29 30  2  0  0  0
 30 31  1  0  0  0
 31 32  2  0  0  0
 32 33  1  0  0  0
 33 34  2  0  0  0
 34 35  1  0  0  0
  2  4  1  0  0  0
  4  7  1  0  0  0
  7  8  2  0  0  0
  8  9  1  0  0  0
  9 10  2  0  0  0
 10 11  1  0  0  0
 11 13  1  0  0  0
 13 14  2  0  0  0
 13 15  1  0  0  0
 15 17  1  0  0  0
 17 18  2  0  0  0
 18 19  1  0  0  0
 19 20  2  0  0  0
 20 21  1  0  0  0
 20 22  1  0  0  0
 22 23  2  0  0  0
 11 12  2  0  0  0
 35 26  1  0  0  0
 12  7  1  0  0  0
 34 29  1  0  0  0
 23 17  1  0  0  0
  3  5  1  0  0  0
  4  6  1  0  0  0
 15 16  1  0  0  0
M  END
> <minimizedAffinity>
-10.60644

$$$$
OCNT-2316751


 29 32  0  0  0  0  0  0  0  0999 V2000
   -5.1713   24.6106    2.9115 N   0  0  0  0  0  0  0  0  0  0  0  0
   -5.9913   25.1637    4.0188 C   0  0  0  0  0  0  0  0  0  0  0  0
   -5.5445   26.5645    4.4724 C   0  0  0  0  0  0  0  0  0  0  0  0
   -4.1094   26.6306    4.7683 N   0  0  0  0  0  0  0  0  0  0  0  0
   -3.6642   27.5269    5.7433 C   0  0  0  0  0  0  0  0  0  0  0  0
   -4.4508   28.3225    6.2656 O   0  0  0  0  0  0  0  0  0  0  0  0
   -3.2399   25.8307    3.8951 C   0  0  0  0  0  0  0  0  0  0  0  0
   -3.9430   25.3710    2.6028 C   0  0  0  0  0  0  0  0  0  0  0  0
   -2.2409   27.5282    6.1607 C   0  0  0  0  0  0  0  0  0  0  0  0
   -1.3779   26.4850    6.0297 N   0  0  0  0  0  0  0  0  0  0  0  0
   -0.2105   26.9090    6.5715 N   0  0  0  0  0  0  0  0  0  0  0  0
   -0.3062   28.1674    7.0335 C   0  0  0  0  0  0  0  0  0  0  0  0
   -1.5765   28.5917    6.8005 C   0  0  0  0  0  0  0  0  0  0  0  0
   -1.7921   29.9635    7.2892 C   0  0  0  0  0  0  0  0  0  0  0  0
   -0.4893   30.2077    8.1381 C   0  0  0  0  0  0  0  0  0  0  0  0
    0.5704   29.1318    7.7050 C   0  0  0  0  0  0  0  0  0  0  0  0
    0.5807   26.2732    6.5830 H   0  0  0  0  0  0  0  0  0  0  0  0
   -6.5633   23.0635    1.5092 C   0  0  0  0  0  0  0  0  0  0  0  0
   -7.2714   22.8761    0.3156 C   0  0  0  0  0  0  0  0  0  0  0  0
   -7.3285   23.8893   -0.6451 C   0  0  0  0  0  0  0  0  0  0  0  0
   -6.6887   25.1027   -0.4193 C   0  0  0  0  0  0  0  0  0  0  0  0
   -5.9918   25.3046    0.7703 C   0  0  0  0  0  0  0  0  0  0  0  0
   -5.9144   24.2997    1.7489 C   0  0  0  0  0  0  0  0  0  0  0  0
   -6.4950   22.1270    2.5093 O   0  0  0  0  0  0  0  0  0  0  0  0
   -7.5721   21.2043    2.6814 C   0  0  0  0  0  0  0  0  0  0  0  0
   -8.0791   21.1375    4.1376 C   0  0  0  0  0  0  0  0  0  0  0  0
   -9.3061   23.0305    5.0811 C   0  0  0  0  0  0  0  0  0  0  0  0
   -7.9953   22.4063    4.8946 N   0  0  0  0  0  0  0  0  0  0  0  0
   -7.3652   22.1742    6.1964 C   0  0  0  0  0  0  0  0  0  0  0  0
 27 28  1  0  0  0
 28 29  1  0  0  0
 28 26  1  0  0  0
 26 25  1  0  0  0
 25 24  1  0  0  0
 24 18  1  0  0  0
 18 19  2  0  0  0
 19 20  1  0  0  0
 20 21  2  0  0  0
 21 22  1  0  0  0
 22 23  2  0  0  0
 23  1  1  0  0  0
  1  2  1  0  0  0
  2  3  1  0  0  0
  3  4  1  0  0  0
  4  5  1  0  0  0
  5  6  2  0  0  0
  5  9  1  0  0  0
  9 10  2  0  0  0
 10 11  1  0  0  0
 11 12  1  0  0  0
 12 13  2  0  0  0
 13 14  1  0  0  0
 14 15  1  0  0  0
 15 16  1  0  0  0
  4  7  1  0  0  0
  7  8  1  0  0  0
 23 18  1  0  0  0
  8  1  1  0  0  0
 13  9  1  0  0  0
 16 12  1  0  0  0
 11 17  1  0  0  0
M  END
> <minimizedAffinity>
-9.80152

$$$$
OCNT-2316755


 24 26  0  0  0  0  0  0  0  0999 V2000
   -6.0801   27.2951    5.8348 N   0  0  0  0  0  0  0  0  0  0  0  0
   -5.1271   28.1204    6.3941 C   0  0  0  0  0  0  0  0  0  0  0  0
   -4.0149   28.3632    5.9469 O   0  0  0  0  0  0  0  0  0  0  0  0
   -5.5979   28.6854    7.5640 N   0  0  0  0  0  0  0  0  0  0  0  0
   -7.0045   27.4098    6.2244 H   0  0  0  0  0  0  0  0  0  0  0  0
   -6.2817   28.1468    8.0729 H   0  0  0  0  0  0  0  0  0  0  0  0
   -5.8931   21.2441    1.9029 C   0  0  0  0  0  0  0  0  0  0  0  0
   -5.8791   22.6495    2.3638 C   0  0  0  0  0  0  0  0  0  0  0  0
   -5.7289   23.8048    1.6249 C   0  0  0  0  0  0  0  0  0  0  0  0
   -5.7895   24.8334    2.5287 N   0  0  0  0  0  0  0  0  0  0  0  0
   -5.6911   26.2032    2.3261 C   0  0  0  0  0  0  0  0  0  0  0  0
   -5.7816   27.0309    3.3824 C   0  0  0  0  0  0  0  0  0  0  0  0
   -5.9878   26.4810    4.7243 C   0  0  0  0  0  0  0  0  0  0  0  0
   -6.0687   25.1399    4.8924 C   0  0  0  0  0  0  0  0  0  0  0  0
   -5.9742   24.2593    3.7777 C   0  0  0  0  0  0  0  0  0  0  0  0
   -6.0300   22.9461    3.6998 N   0  0  0  0  0  0  0  0  0  0  0  0
   -4.7555   29.5622    8.3462 C   0  0  0  0  0  0  0  0  0  0  0  0
   -5.0333   30.9825    7.9754 C   0  0  0  0  0  0  0  0  0  0  0  0
   -6.3906   31.6003    8.2153 C   0  0  0  0  0  0  0  0  0  0  0  0
   -5.2076   32.0324    9.0538 C   0  0  0  0  0  0  0  0  0  0  0  0
   -4.5841   33.3743    8.9192 C   0  0  0  0  0  0  0  0  0  0  0  0
   -3.2878   33.3007    8.5472 F   0  0  0  0  0  0  0  0  0  0  0  0
   -4.6484   34.0322   10.0989 F   0  0  0  0  0  0  0  0  0  0  0  0
   -5.2456   34.1084    7.9976 F   0  0  0  0  0  0  0  0  0  0  0  0
  7  8  1  0  0  0
  8  9  2  0  0  0
  9 10  1  0  0  0
 10 11  1  0  0  0
 11 12  2  0  0  0
 12 13  1  0  0  0
 13  1  1  0  0  0
  1  2  1  0  0  0
  2  3  2  0  0  0
  2  4  1  0  0  0
  4 17  1  0  0  0
 17 18  1  0  0  0
 18 19  1  0  0  0
 19 20  1  0  0  0
 20 21  1  0  0  0
 21 22  1  0  0  0
 21 23  1  0  0  0
 21 24  1  0  0  0
 13 14  2  0  0  0
 14 15  1  0  0  0
 15 16  2  0  0  0
 16  8  1  0  0  0
 15 10  1  0  0  0
 20 18  1  0  0  0
  1  5  1  0  0  0
  4  6  1  0  0  0
M  END
> <minimizedAffinity>
-8.72845

$$$$
OCNT-2316758


 24 26  0  0  0  0  0  0  0  0999 V2000
   -1.2975   25.9355    4.4023 O   0  0  0  0  0  0  0  0  0  0  0  0
   -2.4354   26.1796    4.7954 C   0  0  0  0  0  0  0  0  0  0  0  0
   -2.7467   26.5603    6.0777 N   0  0  0  0  0  0  0  0  0  0  0  0
   -3.7096   26.8438    6.2566 H   0  0  0  0  0  0  0  0  0  0  0  0
   -3.6017   26.0893    3.8624 C   0  0  0  0  0  0  0  0  0  0  0  0
   -3.6198   25.0031    3.0338 N   0  0  0  0  0  0  0  0  0  0  0  0
   -4.6722   24.9157    2.1915 C   0  0  0  0  0  0  0  0  0  0  0  0
   -5.7006   25.8464    2.1374 C   0  0  0  0  0  0  0  0  0  0  0  0
   -5.6577   26.9410    2.9985 C   0  0  0  0  0  0  0  0  0  0  0  0
   -4.5932   27.0706    3.8803 C   0  0  0  0  0  0  0  0  0  0  0  0
   -4.5936   28.1570    4.7099 O   0  0  0  0  0  0  0  0  0  0  0  0
   -3.7938   28.1037    5.2826 H   0  0  0  0  0  0  0  0  0  0  0  0
   -1.7420   26.8851    7.0713 C   0  0  0  0  0  0  0  0  0  0  0  0
   -1.4745   28.4289    7.1613 C   0  0  0  0  0  0  0  0  0  0  0  0
   -0.4053   28.8063    6.0949 C   0  0  0  0  0  0  0  0  0  0  0  0
    0.6842   29.5629    6.8416 C   0  0  0  0  0  0  0  0  0  0  0  0
    0.7216   28.8746    8.1916 C   0  0  0  0  0  0  0  0  0  0  0  0
   -0.7493   28.6649    8.5318 C   0  0  0  0  0  0  0  0  0  0  0  0
   -2.7477   29.2290    7.0805 N   0  0  0  0  0  0  0  0  0  0  0  0
   -3.5969   29.1407    8.2971 C   0  0  0  0  0  0  0  0  0  0  0  0
   -5.0163   29.6926    8.0971 C   0  0  0  0  0  0  0  0  0  0  0  0
   -5.0122   31.4724    7.7420 S   0  0  0  0  0  0  0  0  0  0  0  0
   -3.8072   31.4233    6.3863 C   0  0  0  0  0  0  0  0  0  0  0  0
   -2.5242   30.6646    6.7624 C   0  0  0  0  0  0  0  0  0  0  0  0
  1  2  2  0  0  0
  2  3  1  0  0  0
  3 13  1  0  0  0
 13 14  1  0  0  0
 14 19  1  0  0  0
 19 20  1  0  0  0
 20 21  1  0  0  0
 21 22  1  0  0  0
 22 23  1  0  0  0
 23 24  1  0  0  0
 14 15  1  0  0  0
 15 16  1  0  0  0
 16 17  1  0  0  0
 17 18  1  0  0  0
  2  5  1  0  0  0
  5  6  1  0  0  0
  6  7  2  0  0  0
  7  8  1  0  0  0
  8  9  2  0  0  0
  9 10  1  0  0  0
 10 11  1  0  0  0
 18 14  1  0  0  0
 10  5  2  0  0  0
 24 19  1  0  0  0
  3  4  1  0  0  0
 11 12  1  0  0  0
M  END
> <minimizedAffinity>
-8.14179

$$$$
OCNT-2316768


 24 25  0  0  0  0  0  0  0  0999 V2000
   -4.1761   29.1795    7.0090 N   0  0  0  0  0  0  0  0  0  0  0  0
   -3.6428   28.3389    7.2332 H   0  0  0  0  0  0  0  0  0  0  0  0
   -3.4152   30.3288    7.5479 C   0  0  0  0  0  0  0  0  0  0  0  0
   -1.9428   29.9247    7.6884 C   0  0  0  0  0  0  0  0  0  0  0  0
   -1.1984   30.3602    8.7962 C   0  0  0  0  0  0  0  0  0  0  0  0
    0.1453   30.0067    8.9362 C   0  0  0  0  0  0  0  0  0  0  0  0
    0.7644   29.2173    7.9694 C   0  0  0  0  0  0  0  0  0  0  0  0
    0.0431   28.7845    6.8590 C   0  0  0  0  0  0  0  0  0  0  0  0
   -1.3000   29.1382    6.7167 C   0  0  0  0  0  0  0  0  0  0  0  0
   -4.1549   31.3649    5.4438 O   0  0  0  0  0  0  0  0  0  0  0  0
   -3.5177   31.6221    6.6999 C   0  0  0  0  0  0  0  0  0  0  0  0
   -4.2549   32.2251    5.0029 H   0  0  0  0  0  0  0  0  0  0  0  0
   -5.5490   29.0273    7.5204 C   0  0  0  0  0  0  0  0  0  0  0  0
   -6.6884   29.0204    6.4673 C   0  0  0  0  0  0  0  0  0  0  0  0
   -6.9372   30.3457    5.9979 O   0  0  0  0  0  0  0  0  0  0  0  0
   -7.5253   30.2755    5.2262 H   0  0  0  0  0  0  0  0  0  0  0  0
   -6.3491   28.1463    5.2751 C   0  0  0  0  0  0  0  0  0  0  0  0
   -6.0984   28.7227    4.0224 C   0  0  0  0  0  0  0  0  0  0  0  0
   -5.7949   27.9189    2.9199 C   0  0  0  0  0  0  0  0  0  0  0  0
   -5.7390   26.5287    3.0529 C   0  0  0  0  0  0  0  0  0  0  0  0
   -5.3575   25.6011    1.6466 Cl  0  0  0  0  0  0  0  0  0  0  0  0
   -5.9888   25.9406    4.2962 C   0  0  0  0  0  0  0  0  0  0  0  0
   -5.9387   24.2312    4.5405 Cl  0  0  0  0  0  0  0  0  0  0  0  0
   -6.2927   26.7472    5.3988 C   0  0  0  0  0  0  0  0  0  0  0  0
 10 11  1  0  0  0
 11  3  1  0  0  0
  3  1  1  0  0  0
  1 13  1  0  0  0
 13 14  1  0  0  0
 14 15  1  0  0  0
 14 17  1  0  0  0
 17 18  1  0  0  0
 18 19  2  0  0  0
 19 20  1  0  0  0
 20 21  1  0  0  0
 20 22  2  0  0  0
 22 23  1  0  0  0
 22 24  1  0  0  0
  3  4  1  0  0  0
  4  5  2  0  0  0
  5  6  1  0  0  0
  6  7  2  0  0  0
  7  8  1  0  0  0
  8  9  2  0  0  0
 24 17  2  0  0  0
  9  4  1  0  0  0
 10 12  1  0  0  0
  1  2  1  0  0  0
 15 16  1  0  0  0
M  END
> <minimizedAffinity>
-8.49750

$$$$
OCNT-2316781


 26 29  0  0  0  0  0  0  0  0999 V2000
   -2.0336   26.3460    4.7366 O   0  0  0  0  0  0  0  0  0  0  0  0
   -3.1806   26.4084    5.1594 C   0  0  0  0  0  0  0  0  0  0  0  0
   -3.6241   27.1802    6.2173 N   0  0  0  0  0  0  0  0  0  0  0  0
   -4.5670   27.0239    6.5459 H   0  0  0  0  0  0  0  0  0  0  0  0
   -2.8569   28.1027    6.9622 C   0  0  0  0  0  0  0  0  0  0  0  0
   -1.7984   27.7711    7.8044 C   0  0  0  0  0  0  0  0  0  0  0  0
   -1.0631   28.6767    8.5018 N   0  0  0  0  0  0  0  0  0  0  0  0
   -1.3998   29.9757    8.3649 C   0  0  0  0  0  0  0  0  0  0  0  0
   -0.5878   31.0107    9.0965 C   0  0  0  0  0  0  0  0  0  0  0  0
   -1.4996   32.0606    9.7312 C   0  0  0  0  0  0  0  0  0  0  0  0
   -2.6268   32.5668    8.8158 C   0  0  0  0  0  0  0  0  0  0  0  0
   -2.7050   31.8860    7.4459 C   0  0  0  0  0  0  0  0  0  0  0  0
   -2.4458   30.4115    7.5518 C   0  0  0  0  0  0  0  0  0  0  0  0
   -3.1726   29.4583    6.8361 C   0  0  0  0  0  0  0  0  0  0  0  0
   -4.2213   25.5500    4.5259 C   0  0  0  0  0  0  0  0  0  0  0  0
   -5.4207   25.3428    5.2152 C   0  0  0  0  0  0  0  0  0  0  0  0
   -6.4177   24.5436    4.6582 C   0  0  0  0  0  0  0  0  0  0  0  0
   -6.2175   23.9407    3.4155 C   0  0  0  0  0  0  0  0  0  0  0  0
   -5.0141   24.1232    2.7162 C   0  0  0  0  0  0  0  0  0  0  0  0
   -4.0127   24.9284    3.2852 C   0  0  0  0  0  0  0  0  0  0  0  0
   -4.7930   23.4395    1.3895 C   0  0  0  0  0  0  0  0  0  0  0  0
   -5.9879   23.4650    0.5665 N   0  0  0  0  0  0  0  0  0  0  0  0
   -6.7682   22.3922    0.2334 C   0  0  0  0  0  0  0  0  0  0  0  0
   -7.8056   22.9236   -0.4975 C   0  0  0  0  0  0  0  0  0  0  0  0
   -7.6803   24.2847   -0.6021 N   0  0  0  0  0  0  0  0  0  0  0  0
   -6.5764   24.5822    0.0449 C   0  0  0  0  0  0  0  0  0  0  0  0
  1  2  2  0  0  0
  2  3  1  0  0  0
  3  5  1  0  0  0
  5  6  1  0  0  0
  6  7  2  0  0  0
  7  8  1  0  0  0
  8  9  1  0  0  0
  9 10  1  0  0  0
 10 11  1  0  0  0
 11 12  1  0  0  0
 12 13  1  0  0  0
 13 14  1  0  0  0
  2 15  1  0  0  0
 15 16  1  0  0  0
 16 17  2  0  0  0
 17 18  1  0  0  0
 18 19  2  0  0  0
 19 21  1  0  0  0
 21 22  1  0  0  0
 22 23  1  0  0  0
 23 24  2  0  0  0
 24 25  1  0  0  0
 25 26  2  0  0  0
 19 20  1  0  0  0
 14  5  2  0  0  0
 20 15  2  0  0  0
 13  8  2  0  0  0
 26 22  1  0  0  0
  3  4  1  0  0  0
M  END
> <minimizedAffinity>
-9.52559

$$$$
OCNT-2316796


 22 24  0  0  0  0  0  0  0  0999 V2000
   -3.7394   27.4633    4.8715 N   0  0  0  0  0  0  0  0  0  0  0  0
   -2.8597   27.1255    5.8762 C   0  0  0  0  0  0  0  0  0  0  0  0
   -2.1760   26.1074    5.8631 O   0  0  0  0  0  0  0  0  0  0  0  0
   -4.2222   28.3518    4.9733 H   0  0  0  0  0  0  0  0  0  0  0  0
   -2.8299   28.1143    6.9467 C   0  0  0  0  0  0  0  0  0  0  0  0
   -1.7228   28.6449    7.5794 C   0  0  0  0  0  0  0  0  0  0  0  0
   -2.1636   29.5317    8.5226 O   0  0  0  0  0  0  0  0  0  0  0  0
   -3.5167   29.4961    8.4066 C   0  0  0  0  0  0  0  0  0  0  0  0
   -3.9821   28.6786    7.4896 N   0  0  0  0  0  0  0  0  0  0  0  0
   -0.2336   28.3211    7.3036 C   0  0  0  0  0  0  0  0  0  0  0  0
    0.5680   29.2808    6.4640 C   0  0  0  0  0  0  0  0  0  0  0  0
    0.8357   29.1720    7.9366 C   0  0  0  0  0  0  0  0  0  0  0  0
   -3.9088   26.6647    3.6780 C   0  0  0  0  0  0  0  0  0  0  0  0
   -5.3346   26.7478    3.1270 C   0  0  0  0  0  0  0  0  0  0  0  0
   -6.5147   24.6187    4.9444 C   0  0  0  0  0  0  0  0  0  0  0  0
   -6.3647   24.4057    3.4590 C   0  0  0  0  0  0  0  0  0  0  0  0
   -6.8119   23.2047    2.8660 C   0  0  0  0  0  0  0  0  0  0  0  0
   -7.6248   21.8110    3.8784 Br  0  0  0  0  0  0  0  0  0  0  0  0
   -6.6876   22.9847    1.4906 C   0  0  0  0  0  0  0  0  0  0  0  0
   -6.1253   23.9604    0.6770 C   0  0  0  0  0  0  0  0  0  0  0  0
   -5.6987   25.1612    1.2358 C   0  0  0  0  0  0  0  0  0  0  0  0
   -5.8221   25.4071    2.6172 C   0  0  0  0  0  0  0  0  0  0  0  0
 15 16  1  0  0  0
 16 17  2  0  0  0
 17 18  1  0  0  0
 17 19  1  0  0  0
 19 20  2  0  0  0
 20 21  1  0  0  0
 21 22  2  0  0  0
 22 14  1  0  0  0
 14 13  1  0  0  0
 13  1  1  0  0  0
  1  2  1  0  0  0
  2  3  2  0  0  0
  2  5  1  0  0  0
  5  6  2  0  0  0
  6 10  1  0  0  0
 10 11  1  0  0  0
 11 12  1  0  0  0
  6  7  1  0  0  0
  7  8  1  0  0  0
  8  9  2  0  0  0
 22 16  1  0  0  0
  9  5  1  0  0  0
 12 10  1  0  0  0
  1  4  1  0  0  0
M  END
> <minimizedAffinity>
-8.42803

$$$$
OCNT-2316818


 25 27  0  0  0  0  0  0  0  0999 V2000
   -3.9382   28.5916    5.6842 N   0  0  0  0  0  0  0  0  0  0  0  0
   -4.6447   27.5279    5.1541 C   0  0  0  0  0  0  0  0  0  0  0  0
   -5.6519   27.0728    5.6782 O   0  0  0  0  0  0  0  0  0  0  0  0
   -4.0658   27.1066    3.9757 N   0  0  0  0  0  0  0  0  0  0  0  0
   -2.9488   28.5758    5.4912 H   0  0  0  0  0  0  0  0  0  0  0  0
   -3.3888   27.7403    3.5798 H   0  0  0  0  0  0  0  0  0  0  0  0
   -4.4376   26.0031    3.1797 C   0  0  0  0  0  0  0  0  0  0  0  0
   -3.7360   24.8058    3.3853 C   0  0  0  0  0  0  0  0  0  0  0  0
   -4.0249   23.6421    2.6591 C   0  0  0  0  0  0  0  0  0  0  0  0
   -5.0518   23.7256    1.7180 C   0  0  0  0  0  0  0  0  0  0  0  0
   -5.5811   22.8004    0.8568 N   0  0  0  0  0  0  0  0  0  0  0  0
   -6.5849   23.2691    0.0941 N   0  0  0  0  0  0  0  0  0  0  0  0
   -6.6976   24.5428    0.4816 C   0  0  0  0  0  0  0  0  0  0  0  0
   -5.7721   24.8910    1.4903 C   0  0  0  0  0  0  0  0  0  0  0  0
   -5.4672   26.0493    2.2306 C   0  0  0  0  0  0  0  0  0  0  0  0
   -5.3033   21.8329    0.7414 H   0  0  0  0  0  0  0  0  0  0  0  0
   -5.4021   30.2032    6.7914 C   0  0  0  0  0  0  0  0  0  0  0  0
   -4.3057   29.1520    6.9779 C   0  0  0  0  0  0  0  0  0  0  0  0
   -3.0634   29.6795    7.6798 C   0  0  0  0  0  0  0  0  0  0  0  0
   -3.2133   30.5561    8.7690 C   0  0  0  0  0  0  0  0  0  0  0  0
   -2.1019   31.0436    9.4602 C   0  0  0  0  0  0  0  0  0  0  0  0
   -0.8197   30.6548    9.0795 C   0  0  0  0  0  0  0  0  0  0  0  0
   -0.6574   29.7747    8.0134 C   0  0  0  0  0  0  0  0  0  0  0  0
    0.9246   29.2786    7.5497 Cl  0  0  0  0  0  0  0  0  0  0  0  0
   -1.7653   29.2836    7.3189 C   0  0  0  0  0  0  0  0  0  0  0  0
 17 18  1  0  0  0
 18  1  1  0  0  0
  1  2  1  0  0  0
  2  3  2  0  0  0
  2  4  1  0  0  0
  4  7  1  0  0  0
  7  8  2  0  0  0
  8  9  1  0  0  0
  9 10  2  0  0  0
 10 11  1  0  0  0
 11 12  1  0  0  0
 12 13  2  0  0  0
 13 14  1  0  0  0
 14 15  2  0  0  0
 18 19  1  0  0  0
 19 20  2  0  0  0
 20 21  1  0  0  0
 21 22  2  0  0  0
 22 23  1  0  0  0
 23 24  1  0  0  0
 23 25  2  0  0  0
 15  7  1  0  0  0
 25 19  1  0  0  0
 14 10  1  0  0  0
  1  5  1  0  0  0
  4  6  1  0  0  0
 11 16  1  0  0  0
M  END
> <minimizedAffinity>
-9.01085

$$$$
OCNT-2316819


 25 28  0  0  0  0  0  0  0  0999 V2000
   -7.1158   28.8142    6.0422 C   0  0  0  0  0  0  0  0  0  0  0  0
   -5.6654   28.8508    6.3565 C   0  0  0  0  0  0  0  0  0  0  0  0
   -5.1963   29.7403    7.2297 N   0  0  0  0  0  0  0  0  0  0  0  0
   -3.8453   29.5819    7.2273 N   0  0  0  0  0  0  0  0  0  0  0  0
   -3.4847   28.4602    6.4812 C   0  0  0  0  0  0  0  0  0  0  0  0
   -2.1267   27.8551    6.4401 C   0  0  0  0  0  0  0  0  0  0  0  0
   -4.6413   28.0185    5.8461 C   0  0  0  0  0  0  0  0  0  0  0  0
   -3.0473   30.5281    7.9468 C   0  0  0  0  0  0  0  0  0  0  0  0
   -2.1672   31.4130    7.3133 C   0  0  0  0  0  0  0  0  0  0  0  0
   -1.4132   32.3225    8.0647 C   0  0  0  0  0  0  0  0  0  0  0  0
   -1.5373   32.3657    9.4511 C   0  0  0  0  0  0  0  0  0  0  0  0
   -2.4251   31.5076   10.0920 C   0  0  0  0  0  0  0  0  0  0  0  0
   -3.1804   30.5995    9.3457 C   0  0  0  0  0  0  0  0  0  0  0  0
   -4.8028   26.8861    4.8867 C   0  0  0  0  0  0  0  0  0  0  0  0
   -4.3453   27.2727    3.5498 N   0  0  0  0  0  0  0  0  0  0  0  0
   -5.1528   27.5683    3.0057 H   0  0  0  0  0  0  0  0  0  0  0  0
   -3.6621   26.1937    2.8260 C   0  0  0  0  0  0  0  0  0  0  0  0
   -4.5870   25.1276    2.3685 C   0  0  0  0  0  0  0  0  0  0  0  0
   -5.6516   25.0894    1.4995 C   0  0  0  0  0  0  0  0  0  0  0  0
   -6.0775   23.7485    1.5440 C   0  0  0  0  0  0  0  0  0  0  0  0
   -5.3343   23.0140    2.3755 N   0  0  0  0  0  0  0  0  0  0  0  0
   -4.3886   23.8855    2.8889 O   0  0  0  0  0  0  0  0  0  0  0  0
   -7.2628   23.1335    0.7484 C   0  0  0  0  0  0  0  0  0  0  0  0
   -7.9541   23.9302   -0.3274 C   0  0  0  0  0  0  0  0  0  0  0  0
   -7.0954   22.7547   -0.7002 C   0  0  0  0  0  0  0  0  0  0  0  0
  1  2  1  0  0  0
  2  3  2  0  0  0
  3  4  1  0  0  0
  4  8  1  0  0  0
  8  9  2  0  0  0
  9 10  1  0  0  0
 10 11  2  0  0  0
 11 12  1  0  0  0
 12 13  2  0  0  0
  4  5  1  0  0  0
  5  6  1  0  0  0
  5  7  2  0  0  0
  7 14  1  0  0  0
 14 15  1  0  0  0
 15 17  1  0  0  0
 17 18  1  0  0  0
 18 19  2  0  0  0
 19 20  1  0  0  0
 20 23  1  0  0  0
 23 24  1  0  0  0
 24 25  1  0  0  0
 20 21  2  0  0  0
 21 22  1  0  0  0
  7  2  1  0  0  0
 22 18  1  0  0  0
 13  8  1  0  0  0
 25 23  1  0  0  0
 15 16  1  0  0  0
M  END
> <minimizedAffinity>
-8.89370

$$$$
OCNT-2316822


 25 28  0  0  0  0  0  0  0  0999 V2000
   -4.8129   25.7466    4.6763 C   0  0  0  0  0  0  0  0  0  0  0  0
   -5.3538   27.1376    4.3758 C   0  0  0  0  0  0  0  0  0  0  0  0
   -5.6152   27.7316    3.1538 C   0  0  0  0  0  0  0  0  0  0  0  0
   -6.1272   29.0541    3.2842 C   0  0  0  0  0  0  0  0  0  0  0  0
   -6.2470   29.4313    4.6018 C   0  0  0  0  0  0  0  0  0  0  0  0
   -5.7484   28.1959    5.6716 S   0  0  0  0  0  0  0  0  0  0  0  0
   -3.8695   25.6854    5.8019 N   0  0  0  0  0  0  0  0  0  0  0  0
   -3.8194   24.7506    6.2065 H   0  0  0  0  0  0  0  0  0  0  0  0
    0.7695   29.1513    7.4428 C   0  0  0  0  0  0  0  0  0  0  0  0
   -0.4606   28.4245    7.2771 N   0  0  0  0  0  0  0  0  0  0  0  0
   -1.5617   28.4915    8.0854 C   0  0  0  0  0  0  0  0  0  0  0  0
   -2.5280   27.7020    7.6639 N   0  0  0  0  0  0  0  0  0  0  0  0
   -2.0203   27.1015    6.5263 C   0  0  0  0  0  0  0  0  0  0  0  0
   -2.5678   26.1571    5.6340 C   0  0  0  0  0  0  0  0  0  0  0  0
   -1.7913   25.7588    4.5924 N   0  0  0  0  0  0  0  0  0  0  0  0
   -0.5494   26.2772    4.4671 C   0  0  0  0  0  0  0  0  0  0  0  0
    0.0708   27.1718    5.2609 N   0  0  0  0  0  0  0  0  0  0  0  0
   -0.7311   27.5389    6.2726 C   0  0  0  0  0  0  0  0  0  0  0  0
   -5.9415   24.6867    4.7504 C   0  0  0  0  0  0  0  0  0  0  0  0
   -5.9206   23.6927    3.6075 C   0  0  0  0  0  0  0  0  0  0  0  0
   -6.2786   24.0936    2.3138 C   0  0  0  0  0  0  0  0  0  0  0  0
   -6.2700   23.1779    1.2610 C   0  0  0  0  0  0  0  0  0  0  0  0
   -5.9046   21.8531    1.4912 C   0  0  0  0  0  0  0  0  0  0  0  0
   -5.5501   21.4423    2.7751 C   0  0  0  0  0  0  0  0  0  0  0  0
   -5.5594   22.3566    3.8300 C   0  0  0  0  0  0  0  0  0  0  0  0
  9 10  1  0  0  0
 10 11  1  0  0  0
 11 12  2  0  0  0
 12 13  1  0  0  0
 13 14  2  0  0  0
 14  7  1  0  0  0
  7  1  1  0  0  0
  1 19  1  0  0  0
 19 20  1  0  0  0
 20 21  2  0  0  0
 21 22  1  0  0  0
 22 23  2  0  0  0
 23 24  1  0  0  0
 24 25  2  0  0  0
  1  2  1  0  0  0
  2  3  2  0  0  0
  3  4  1  0  0  0
  4  5  2  0  0  0
  5  6  1  0  0  0
 14 15  1  0  0  0
 15 16  2  0  0  0
 16 17  1  0  0  0
 17 18  2  0  0  0
 18 10  1  0  0  0
 18 13  1  0  0  0
 25 20  1  0  0  0
  6  2  1  0  0  0
  7  8  1  0  0  0
M  END
> <minimizedAffinity>
-8.77228

$$$$
OCNT-2316823


 26 29  0  0  0  0  0  0  0  0999 V2000
   -4.6806   29.4950    8.8726 C   0  0  0  0  0  0  0  0  0  0  0  0
   -0.9278   29.9804    8.3734 C   0  0  0  0  0  0  0  0  0  0  0  0
   -0.6862   31.1476    9.1017 C   0  0  0  0  0  0  0  0  0  0  0  0
   -1.7470   31.7852    9.7418 C   0  0  0  0  0  0  0  0  0  0  0  0
   -3.0367   31.2550    9.6582 C   0  0  0  0  0  0  0  0  0  0  0  0
   -3.2862   30.0752    8.9359 C   0  0  0  0  0  0  0  0  0  0  0  0
   -2.2143   29.4350    8.2947 C   0  0  0  0  0  0  0  0  0  0  0  0
   -0.2089   27.6053    7.3710 N   0  0  0  0  0  0  0  0  0  0  0  0
    0.4173   29.1581    7.5614 S   0  0  0  0  0  0  0  0  0  0  0  0
    1.5308   29.0778    8.4756 O   0  0  0  0  0  0  0  0  0  0  0  0
    0.5440   29.6913    6.2244 O   0  0  0  0  0  0  0  0  0  0  0  0
   -0.2956   27.4082    6.3725 H   0  0  0  0  0  0  0  0  0  0  0  0
   -1.0900   27.4661    7.8633 H   0  0  0  0  0  0  0  0  0  0  0  0
   -5.0178   29.3892    7.4314 C   0  0  0  0  0  0  0  0  0  0  0  0
   -5.3021   30.4570    6.6739 N   0  0  0  0  0  0  0  0  0  0  0  0
   -5.5497   29.8992    5.4200 O   0  0  0  0  0  0  0  0  0  0  0  0
   -5.4097   28.5398    5.5485 C   0  0  0  0  0  0  0  0  0  0  0  0
   -5.1016   28.1839    6.7798 N   0  0  0  0  0  0  0  0  0  0  0  0
   -5.6028   27.5517    4.3502 C   0  0  0  0  0  0  0  0  0  0  0  0
   -5.7235   27.9555    3.0789 N   0  0  0  0  0  0  0  0  0  0  0  0
   -5.8809   26.7962    2.3357 O   0  0  0  0  0  0  0  0  0  0  0  0
   -5.8462   25.7195    3.1647 C   0  0  0  0  0  0  0  0  0  0  0  0
   -5.6750   26.1453    4.4576 C   0  0  0  0  0  0  0  0  0  0  0  0
   -5.9963   24.2493    2.7052 C   0  0  0  0  0  0  0  0  0  0  0  0
   -5.0098   23.6846    1.7169 C   0  0  0  0  0  0  0  0  0  0  0  0
   -6.4187   23.9719    1.2864 C   0  0  0  0  0  0  0  0  0  0  0  0
  8  9  1  0  0  0
  9 10  2  0  0  0
  9 11  2  0  0  0
  9  2  1  0  0  0
  2  3  2  0  0  0
  3  4  1  0  0  0
  4  5  2  0  0  0
  5  6  1  0  0  0
  6  1  1  0  0  0
  1 14  1  0  0  0
 14 15  2  0  0  0
 15 16  1  0  0  0
 16 17  1  0  0  0
 17 19  1  0  0  0
 19 20  2  0  0  0
 20 21  1  0  0  0
 21 22  1  0  0  0
 22 24  1  0  0  0
 24 25  1  0  0  0
 25 26  1  0  0  0
 22 23  2  0  0  0
 17 18  2  0  0  0
  6  7  2  0  0  0
  7  2  1  0  0  0
 18 14  1  0  0  0
 23 19  1  0  0  0
 26 24  1  0  0  0
  8 12  1  0  0  0
  8 13  1  0  0  0
M  END
> <minimizedAffinity>
-9.07150

$$$$
OCNT-2316834


 25 26  0  0  0  0  0  0  0  0999 V2000
   -3.6734   30.4223    7.0714 C   0  0  0  0  0  0  0  0  0  0  0  0
   -2.2309   30.1457    7.4930 C   0  0  0  0  0  0  0  0  0  0  0  0
   -1.4186   29.3240    6.6839 C   0  0  0  0  0  0  0  0  0  0  0  0
   -0.1040   29.0278    7.0432 C   0  0  0  0  0  0  0  0  0  0  0  0
    0.4242   29.5352    8.2231 C   0  0  0  0  0  0  0  0  0  0  0  0
   -0.3652   30.3325    9.0500 C   0  0  0  0  0  0  0  0  0  0  0  0
   -1.6972   30.6418    8.7088 C   0  0  0  0  0  0  0  0  0  0  0  0
   -2.5135   31.4938    9.6598 C   0  0  0  0  0  0  0  0  0  0  0  0
   -3.7500   30.9743    9.8949 F   0  0  0  0  0  0  0  0  0  0  0  0
   -1.9403   31.6439   10.8878 F   0  0  0  0  0  0  0  0  0  0  0  0
   -2.7116   32.7552    9.1898 F   0  0  0  0  0  0  0  0  0  0  0  0
   -5.3697   29.1520    5.7490 C   0  0  0  0  0  0  0  0  0  0  0  0
   -6.2948   29.8751    6.1108 O   0  0  0  0  0  0  0  0  0  0  0  0
   -4.0645   29.4062    6.1022 N   0  0  0  0  0  0  0  0  0  0  0  0
   -3.3907   28.6970    5.8313 H   0  0  0  0  0  0  0  0  0  0  0  0
   -5.7359   25.7820    1.9500 C   0  0  0  0  0  0  0  0  0  0  0  0
   -5.7135   26.4403    3.2785 C   0  0  0  0  0  0  0  0  0  0  0  0
   -5.9379   25.8540    4.5110 C   0  0  0  0  0  0  0  0  0  0  0  0
   -6.2615   24.4762    4.9376 C   0  0  0  0  0  0  0  0  0  0  0  0
   -5.8378   26.7786    5.5057 O   0  0  0  0  0  0  0  0  0  0  0  0
   -5.5379   27.9795    4.9187 C   0  0  0  0  0  0  0  0  0  0  0  0
   -5.4523   27.8120    3.5513 C   0  0  0  0  0  0  0  0  0  0  0  0
   -3.8670   31.8694    6.5383 C   0  0  0  0  0  0  0  0  0  0  0  0
   -5.0278   32.4982    7.0826 O   0  0  0  0  0  0  0  0  0  0  0  0
   -5.7708   31.8600    6.9995 H   0  0  0  0  0  0  0  0  0  0  0  0
 16 17  1  0  0  0
 17 18  2  0  0  0
 18 19  1  0  0  0
 18 20  1  0  0  0
 20 21  1  0  0  0
 21 12  1  0  0  0
 12 13  2  0  0  0
 12 14  1  0  0  0
 14  1  1  0  0  0
  1 23  1  0  0  0
 23 24  1  0  0  0
  1  2  1  0  0  0
  2  3  2  0  0  0
  3  4  1  0  0  0
  4  5  2  0  0  0
  5  6  1  0  0  0
  6  7  2  0  0  0
  7  8  1  0  0  0
  8  9  1  0  0  0
  8 10  1  0  0  0
  8 11  1  0  0  0
 21 22  2  0  0  0
 22 17  1  0  0  0
  7  2  1  0  0  0
 14 15  1  0  0  0
 24 25  1  0  0  0
M  END
> <minimizedAffinity>
-8.97876

$$$$
OCNT-2316839


 27 28  0  0  0  0  0  0  0  0999 V2000
   -4.7236   29.2940    6.4276 C   0  0  0  0  0  0  0  0  0  0  0  0
   -5.1059   30.4725    5.7014 O   0  0  0  0  0  0  0  0  0  0  0  0
   -4.3273   31.0519    5.6330 H   0  0  0  0  0  0  0  0  0  0  0  0
   -5.9099   28.3065    6.3972 C   0  0  0  0  0  0  0  0  0  0  0  0
   -5.5656   27.0793    5.6613 N   0  0  0  0  0  0  0  0  0  0  0  0
   -6.3006   26.9313    4.9553 H   0  0  0  0  0  0  0  0  0  0  0  0
   -4.2730   27.1860    4.9431 C   0  0  0  0  0  0  0  0  0  0  0  0
   -3.3468   26.0531    5.4054 C   0  0  0  0  0  0  0  0  0  0  0  0
   -4.5026   27.1146    3.3993 C   0  0  0  0  0  0  0  0  0  0  0  0
   -5.8178   27.7673    2.9307 C   0  0  0  0  0  0  0  0  0  0  0  0
   -5.8007   29.1819    3.0788 O   0  0  0  0  0  0  0  0  0  0  0  0
   -6.6792   29.5063    2.8182 H   0  0  0  0  0  0  0  0  0  0  0  0
   -5.7408   25.3343    1.5570 C   0  0  0  0  0  0  0  0  0  0  0  0
   -4.3359   25.3941    2.7001 S   0  0  0  0  0  0  0  0  0  0  0  0
   -4.3291   29.6540    7.8736 C   0  0  0  0  0  0  0  0  0  0  0  0
   -3.7948   31.0092    7.9800 N   0  0  0  0  0  0  0  0  0  0  0  0
   -4.5970   32.0612    8.2781 C   0  0  0  0  0  0  0  0  0  0  0  0
   -5.8100   32.0390    8.4217 O   0  0  0  0  0  0  0  0  0  0  0  0
   -3.8217   33.1794    8.4542 O   0  0  0  0  0  0  0  0  0  0  0  0
   -2.4723   32.7464    8.3333 N   0  0  0  0  0  0  0  0  0  0  0  0
   -2.5385   31.4853    8.0532 C   0  0  0  0  0  0  0  0  0  0  0  0
   -1.3333   30.6610    7.8807 C   0  0  0  0  0  0  0  0  0  0  0  0
   -0.5756   30.3651    9.0225 C   0  0  0  0  0  0  0  0  0  0  0  0
    0.5828   29.5973    8.9144 C   0  0  0  0  0  0  0  0  0  0  0  0
    0.9899   29.1290    7.6656 C   0  0  0  0  0  0  0  0  0  0  0  0
    0.2503   29.4426    6.5230 C   0  0  0  0  0  0  0  0  0  0  0  0
   -0.9059   30.2190    6.6257 C   0  0  0  0  0  0  0  0  0  0  0  0
 13 14  1  0  0  0
 14  9  1  0  0  0
  9 10  1  0  0  0
 10 11  1  0  0  0
  9  7  1  0  0  0
  7  8  1  0  0  0
  7  5  1  0  0  0
  5  4  1  0  0  0
  4  1  1  0  0  0
  1  2  1  0  0  0
  1 15  1  0  0  0
 15 16  1  0  0  0
 16 17  1  0  0  0
 17 18  2  0  0  0
 17 19  1  0  0  0
 19 20  1  0  0  0
 20 21  2  0  0  0
 21 22  1  0  0  0
 22 23  2  0  0  0
 23 24  1  0  0  0
 24 25  2  0  0  0
 25 26  1  0  0  0
 26 27  2  0  0  0
 21 16  1  0  0  0
 27 22  1  0  0  0
 11 12  1  0  0  0
  5  6  1  0  0  0
  2  3  1  0  0  0
M  END
> <minimizedAffinity>
-7.70228

$$$$
OCNT-2316841


 24 26  0  0  0  0  0  0  0  0999 V2000
   -4.2500   28.3735    7.6449 N   0  0  0  0  0  0  0  0  0  0  0  0
   -4.6351   28.5358    6.3392 C   0  0  0  0  0  0  0  0  0  0  0  0
   -4.8741   29.6184    5.8243 O   0  0  0  0  0  0  0  0  0  0  0  0
   -4.7179   27.3286    5.6976 N   0  0  0  0  0  0  0  0  0  0  0  0
   -3.6314   27.5900    7.7948 H   0  0  0  0  0  0  0  0  0  0  0  0
   -4.9002   26.5345    6.2914 H   0  0  0  0  0  0  0  0  0  0  0  0
   -3.9798   29.5425    8.4428 C   0  0  0  0  0  0  0  0  0  0  0  0
    1.1026   29.1442    8.1685 C   0  0  0  0  0  0  0  0  0  0  0  0
   -0.2954   29.5502    8.4448 C   0  0  0  0  0  0  0  0  0  0  0  0
   -0.5480   30.6416    9.1749 N   0  0  0  0  0  0  0  0  0  0  0  0
   -1.8918   30.7117    9.2154 N   0  0  0  0  0  0  0  0  0  0  0  0
   -2.5216   31.7920    9.9392 C   0  0  0  0  0  0  0  0  0  0  0  0
   -2.5097   29.6893    8.5415 C   0  0  0  0  0  0  0  0  0  0  0  0
   -1.4871   28.9189    8.0268 C   0  0  0  0  0  0  0  0  0  0  0  0
   -5.1733   27.2425    4.3290 C   0  0  0  0  0  0  0  0  0  0  0  0
   -5.0351   25.8360    3.8405 C   0  0  0  0  0  0  0  0  0  0  0  0
   -5.9819   24.7579    4.3176 C   0  0  0  0  0  0  0  0  0  0  0  0
   -6.0637   25.2527    2.8933 C   0  0  0  0  0  0  0  0  0  0  0  0
   -5.6975   24.3864    1.7064 C   0  0  0  0  0  0  0  0  0  0  0  0
   -6.1780   22.9254    1.7879 C   0  0  0  0  0  0  0  0  0  0  0  0
   -6.1776   22.2620    0.4156 C   0  0  0  0  0  0  0  0  0  0  0  0
   -7.1438   22.9547   -0.5461 C   0  0  0  0  0  0  0  0  0  0  0  0
   -7.3572   24.4360   -0.2322 C   0  0  0  0  0  0  0  0  0  0  0  0
   -6.1163   25.0707    0.3858 C   0  0  0  0  0  0  0  0  0  0  0  0
  8  9  1  0  0  0
  9 10  2  0  0  0
 10 11  1  0  0  0
 11 12  1  0  0  0
 11 13  1  0  0  0
 13  7  1  0  0  0
  7  1  1  0  0  0
  1  2  1  0  0  0
  2  3  2  0  0  0
  2  4  1  0  0  0
  4 15  1  0  0  0
 15 16  1  0  0  0
 16 17  1  0  0  0
 17 18  1  0  0  0
 18 19  1  0  0  0
 19 20  1  0  0  0
 20 21  1  0  0  0
 21 22  1  0  0  0
 22 23  1  0  0  0
 23 24  1  0  0  0
 13 14  2  0  0  0
 14  9  1  0  0  0
 18 16  1  0  0  0
 24 19  1  0  0  0
  1  5  1  0  0  0
  4  6  1  0  0  0
M  END
> <minimizedAffinity>
-9.21015

$$$$
OCNT-2316845


 24 27  0  0  0  0  0  0  0  0999 V2000
   -5.5374   26.8379    4.6295 N   0  0  0  0  0  0  0  0  0  0  0  0
   -5.8220   25.4153    4.8309 C   0  0  0  0  0  0  0  0  0  0  0  0
   -4.9247   24.5110    3.9510 C   0  0  0  0  0  0  0  0  0  0  0  0
   -4.7013   24.9945    2.5651 N   0  0  0  0  0  0  0  0  0  0  0  0
   -5.6250   26.0939    2.2317 C   0  0  0  0  0  0  0  0  0  0  0  0
   -5.4742   27.2775    3.2216 C   0  0  0  0  0  0  0  0  0  0  0  0
   -1.3499   27.7086    6.5205 N   0  0  0  0  0  0  0  0  0  0  0  0
   -1.1880   26.7310    5.6069 N   0  0  0  0  0  0  0  0  0  0  0  0
   -2.3800   26.4943    5.0694 N   0  0  0  0  0  0  0  0  0  0  0  0
   -3.3013   27.3317    5.6585 C   0  0  0  0  0  0  0  0  0  0  0  0
   -4.6909   27.5358    5.4897 C   0  0  0  0  0  0  0  0  0  0  0  0
   -5.2523   28.5077    6.2810 N   0  0  0  0  0  0  0  0  0  0  0  0
   -4.4898   29.2000    7.1518 C   0  0  0  0  0  0  0  0  0  0  0  0
   -3.1718   29.0775    7.3768 N   0  0  0  0  0  0  0  0  0  0  0  0
   -2.6484   28.1223    6.5909 C   0  0  0  0  0  0  0  0  0  0  0  0
    0.4865   29.3420    6.5890 C   0  0  0  0  0  0  0  0  0  0  0  0
   -0.2257   28.1956    7.2841 C   0  0  0  0  0  0  0  0  0  0  0  0
   -4.7417   23.9118    1.5645 C   0  0  0  0  0  0  0  0  0  0  0  0
   -6.1622   23.3417    1.3052 C   0  0  0  0  0  0  0  0  0  0  0  0
   -6.5857   23.6339   -0.0261 O   0  0  0  0  0  0  0  0  0  0  0  0
   -7.5013   23.3151   -0.0967 H   0  0  0  0  0  0  0  0  0  0  0  0
   -6.1764   21.8442    1.4529 C   0  0  0  0  0  0  0  0  0  0  0  0
   -7.0137   21.1925    2.5260 C   0  0  0  0  0  0  0  0  0  0  0  0
   -5.5138   21.1793    2.6329 C   0  0  0  0  0  0  0  0  0  0  0  0
 16 17  1  0  0  0
 17  7  1  0  0  0
  7  8  1  0  0  0
  8  9  2  0  0  0
  9 10  1  0  0  0
 10 11  2  0  0  0
 11  1  1  0  0  0
  1  2  1  0  0  0
  2  3  1  0  0  0
  3  4  1  0  0  0
  4 18  1  0  0  0
 18 19  1  0  0  0
 19 20  1  0  0  0
 19 22  1  0  0  0
 22 23  1  0  0  0
 23 24  1  0  0  0
  4  5  1  0  0  0
  5  6  1  0  0  0
 11 12  1  0  0  0
 12 13  2  0  0  0
 13 14  1  0  0  0
 14 15  2  0  0  0
 15  7  1  0  0  0
 15 10  1  0  0  0
  6  1  1  0  0  0
 24 22  1  0  0  0
 20 21  1  0  0  0
M  END
> <minimizedAffinity>
-7.92578

$$$$
OCNT-2316852


 24 26  0  0  0  0  0  0  0  0999 V2000
   -4.6287   25.7202    3.5376 S   0  0  0  0  0  0  0  0  0  0  0  0
   -4.2150   25.3545    4.8724 O   0  0  0  0  0  0  0  0  0  0  0  0
   -3.6770   26.0296    2.4941 O   0  0  0  0  0  0  0  0  0  0  0  0
   -5.7053   22.8674    5.0555 C   0  0  0  0  0  0  0  0  0  0  0  0
   -5.9609   23.2539    3.6366 C   0  0  0  0  0  0  0  0  0  0  0  0
   -5.5590   24.3843    2.9331 C   0  0  0  0  0  0  0  0  0  0  0  0
   -6.1293   24.3229    1.6257 C   0  0  0  0  0  0  0  0  0  0  0  0
   -6.1238   25.1726    0.4955 C   0  0  0  0  0  0  0  0  0  0  0  0
   -6.8278   24.8123   -0.6575 C   0  0  0  0  0  0  0  0  0  0  0  0
   -7.5383   23.6204   -0.7035 C   0  0  0  0  0  0  0  0  0  0  0  0
   -7.5584   22.7571    0.3944 C   0  0  0  0  0  0  0  0  0  0  0  0
   -6.8450   23.1231    1.5500 C   0  0  0  0  0  0  0  0  0  0  0  0
   -6.6792   22.4696    2.7570 N   0  0  0  0  0  0  0  0  0  0  0  0
   -7.2020   21.1513    3.0580 C   0  0  0  0  0  0  0  0  0  0  0  0
   -5.6735   27.0426    3.6416 N   0  0  0  0  0  0  0  0  0  0  0  0
   -6.5914   26.7802    3.2833 H   0  0  0  0  0  0  0  0  0  0  0  0
   -5.6533   28.0403    4.7429 C   0  0  0  0  0  0  0  0  0  0  0  0
   -6.7477   27.9113    5.8279 C   0  0  0  0  0  0  0  0  0  0  0  0
   -6.8426   29.4573    5.8474 C   0  0  0  0  0  0  0  0  0  0  0  0
   -6.2394   29.4335    4.4211 C   0  0  0  0  0  0  0  0  0  0  0  0
   -6.0328   30.1991    6.9453 C   0  0  0  0  0  0  0  0  0  0  0  0
   -4.9120   29.9391    7.3638 O   0  0  0  0  0  0  0  0  0  0  0  0
   -6.6950   31.2525    7.4782 O   0  0  0  0  0  0  0  0  0  0  0  0
   -6.0689   31.6135    8.1411 H   0  0  0  0  0  0  0  0  0  0  0  0
  4  5  1  0  0  0
  5  6  2  0  0  0
  6  1  1  0  0  0
  1  2  2  0  0  0
  1  3  2  0  0  0
  1 15  1  0  0  0
 15 17  1  0  0  0
 17 18  1  0  0  0
 18 19  1  0  0  0
 19 21  1  0  0  0
 21 22  2  0  0  0
 21 23  1  0  0  0
 19 20  1  0  0  0
  6  7  1  0  0  0
  7  8  2  0  0  0
  8  9  1  0  0  0
  9 10  2  0  0  0
 10 11  1  0  0  0
 11 12  2  0  0  0
 12 13  1  0  0  0
 13 14  1  0  0  0
 13  5  1  0  0  0
 20 17  1  0  0  0
 12  7  1  0  0  0
 15 16  1  0  0  0
 23 24  1  0  0  0
M  END
> <minimizedAffinity>
-8.73656

$$$$
OCNT-2316861


 25 28  0  0  0  0  0  0  0  0999 V2000
   -6.2096   24.5775    4.1607 C   0  0  0  0  0  0  0  0  0  0  0  0
   -5.7941   25.9007    3.9364 C   0  0  0  0  0  0  0  0  0  0  0  0
   -5.4881   26.3027    2.6434 C   0  0  0  0  0  0  0  0  0  0  0  0
   -5.5170   25.4905    1.5656 N   0  0  0  0  0  0  0  0  0  0  0  0
   -5.8922   24.2183    1.7576 C   0  0  0  0  0  0  0  0  0  0  0  0
   -5.9263   23.3776    0.6528 C   0  0  0  0  0  0  0  0  0  0  0  0
   -6.3011   22.0367    0.7547 C   0  0  0  0  0  0  0  0  0  0  0  0
   -6.6501   21.5156    1.9909 C   0  0  0  0  0  0  0  0  0  0  0  0
   -6.6237   22.3408    3.1144 C   0  0  0  0  0  0  0  0  0  0  0  0
   -6.2512   23.7044    3.0273 C   0  0  0  0  0  0  0  0  0  0  0  0
   -5.7200   26.9525    4.9624 C   0  0  0  0  0  0  0  0  0  0  0  0
   -6.7520   27.5537    5.2493 O   0  0  0  0  0  0  0  0  0  0  0  0
   -4.4684   27.2586    5.5137 N   0  0  0  0  0  0  0  0  0  0  0  0
   -3.3312   26.3376    5.4909 C   0  0  0  0  0  0  0  0  0  0  0  0
   -1.9979   27.0775    5.5003 C   0  0  0  0  0  0  0  0  0  0  0  0
   -1.9106   28.0542    6.6919 C   0  0  0  0  0  0  0  0  0  0  0  0
   -3.1006   29.0288    6.5753 C   0  0  0  0  0  0  0  0  0  0  0  0
   -4.4301   28.2815    6.5526 C   0  0  0  0  0  0  0  0  0  0  0  0
   -0.6319   28.7981    6.6468 N   0  0  0  0  0  0  0  0  0  0  0  0
    0.2222   28.5237    7.8322 C   0  0  0  0  0  0  0  0  0  0  0  0
   -0.3302   29.7778    8.5152 C   0  0  0  0  0  0  0  0  0  0  0  0
   -0.7790   30.2018    7.1140 C   0  0  0  0  0  0  0  0  0  0  0  0
   -8.0185   23.6819    5.5590 C   0  0  0  0  0  0  0  0  0  0  0  0
   -6.6118   24.0460    5.4151 N   0  0  0  0  0  0  0  0  0  0  0  0
   -5.6710   23.0213    5.8871 C   0  0  0  0  0  0  0  0  0  0  0  0
 23 24  1  0  0  0
 24 25  1  0  0  0
 24  1  1  0  0  0
  1  2  2  0  0  0
  2 11  1  0  0  0
 11 12  2  0  0  0
 11 13  1  0  0  0
 13 14  1  0  0  0
 14 15  1  0  0  0
 15 16  1  0  0  0
 16 19  1  0  0  0
 19 20  1  0  0  0
 20 21  1  0  0  0
 21 22  1  0  0  0
 16 17  1  0  0  0
 17 18  1  0  0  0
  2  3  1  0  0  0
  3  4  2  0  0  0
  4  5  1  0  0  0
  5  6  2  0  0  0
  6  7  1  0  0  0
  7  8  2  0  0  0
  8  9  1  0  0  0
  9 10  2  0  0  0
 10  1  1  0  0  0
 18 13  1  0  0  0
 10  5  1  0  0  0
 22 19  1  0  0  0
M  END
> <minimizedAffinity>
-8.73552

$$$$
OCNT-2316870


 23 25  0  0  0  0  0  0  0  0999 V2000
   -4.1864   27.3630    5.0731 N   0  0  0  0  0  0  0  0  0  0  0  0
   -4.6196   26.0820    4.8145 C   0  0  0  0  0  0  0  0  0  0  0  0
   -4.3251   25.0562    5.4063 O   0  0  0  0  0  0  0  0  0  0  0  0
   -4.5800   28.0807    4.4810 H   0  0  0  0  0  0  0  0  0  0  0  0
   -4.9430   29.5440    6.7796 C   0  0  0  0  0  0  0  0  0  0  0  0
   -3.6142   28.8482    6.9324 C   0  0  0  0  0  0  0  0  0  0  0  0
   -2.6851   29.2268    7.9197 C   0  0  0  0  0  0  0  0  0  0  0  0
   -2.9749   30.6296    9.1647 Br  0  0  0  0  0  0  0  0  0  0  0  0
   -1.4764   28.5456    8.0084 C   0  0  0  0  0  0  0  0  0  0  0  0
   -1.1235   27.5264    7.2007 N   0  0  0  0  0  0  0  0  0  0  0  0
   -2.0250   27.1653    6.2561 C   0  0  0  0  0  0  0  0  0  0  0  0
   -3.2702   27.7745    6.0732 C   0  0  0  0  0  0  0  0  0  0  0  0
   -5.5876   26.0114    3.6880 C   0  0  0  0  0  0  0  0  0  0  0  0
   -5.7284   27.1234    2.6817 C   0  0  0  0  0  0  0  0  0  0  0  0
   -5.0459   25.8406    2.2759 C   0  0  0  0  0  0  0  0  0  0  0  0
   -5.7194   24.8559    1.3509 C   0  0  0  0  0  0  0  0  0  0  0  0
   -6.4909   25.2781    0.2546 C   0  0  0  0  0  0  0  0  0  0  0  0
   -7.1042   24.3588   -0.6015 C   0  0  0  0  0  0  0  0  0  0  0  0
   -6.9489   22.9935   -0.3809 C   0  0  0  0  0  0  0  0  0  0  0  0
   -6.1777   22.5590    0.6875 C   0  0  0  0  0  0  0  0  0  0  0  0
   -6.0381   21.2143    0.8665 O   0  0  0  0  0  0  0  0  0  0  0  0
   -5.5657   23.4716    1.5445 C   0  0  0  0  0  0  0  0  0  0  0  0
   -5.4428   21.0635    1.6195 H   0  0  0  0  0  0  0  0  0  0  0  0
  5  6  1  0  0  0
  6  7  2  0  0  0
  7  8  1  0  0  0
  7  9  1  0  0  0
  9 10  2  0  0  0
 10 11  1  0  0  0
 11 12  2  0  0  0
 12  1  1  0  0  0
  1  2  1  0  0  0
  2  3  2  0  0  0
  2 13  1  0  0  0
 13 14  1  0  0  0
 14 15  1  0  0  0
 15 16  1  0  0  0
 16 17  2  0  0  0
 17 18  1  0  0  0
 18 19  2  0  0  0
 19 20  1  0  0  0
 20 21  1  0  0  0
 20 22  2  0  0  0
 12  6  1  0  0  0
 15 13  1  0  0  0
 22 16  1  0  0  0
  1  4  1  0  0  0
 21 23  1  0  0  0
M  END
> <minimizedAffinity>
-8.95274

$$$$
OCNT-2316874


 26 28  0  0  0  0  0  0  0  0999 V2000
   -5.8129   31.8218    8.1857 C   0  0  0  0  0  0  0  0  0  0  0  0
   -5.7325   30.4409    7.5035 C   0  0  0  0  0  0  0  0  0  0  0  0
   -6.2954   29.3929    8.4921 C   0  0  0  0  0  0  0  0  0  0  0  0
   -6.5376   30.3943    6.1421 C   0  0  0  0  0  0  0  0  0  0  0  0
   -7.9494   30.5224    6.3658 O   0  0  0  0  0  0  0  0  0  0  0  0
   -8.3949   30.2649    5.5401 H   0  0  0  0  0  0  0  0  0  0  0  0
   -6.3065   29.1739    5.2628 C   0  0  0  0  0  0  0  0  0  0  0  0
   -6.0505   29.3343    3.8909 C   0  0  0  0  0  0  0  0  0  0  0  0
   -5.8359   28.2241    3.0701 C   0  0  0  0  0  0  0  0  0  0  0  0
   -5.8785   26.9431    3.6144 C   0  0  0  0  0  0  0  0  0  0  0  0
   -5.5881   25.4412    2.5043 Br  0  0  0  0  0  0  0  0  0  0  0  0
   -6.1351   26.7615    4.9707 C   0  0  0  0  0  0  0  0  0  0  0  0
   -6.3492   27.8725    5.7899 C   0  0  0  0  0  0  0  0  0  0  0  0
   -4.3015   30.0535    7.3522 N   0  0  0  0  0  0  0  0  0  0  0  0
   -3.7397   30.8706    7.1215 H   0  0  0  0  0  0  0  0  0  0  0  0
   -3.6888   29.3798    8.4945 C   0  0  0  0  0  0  0  0  0  0  0  0
   -2.2201   29.1450    8.2267 C   0  0  0  0  0  0  0  0  0  0  0  0
   -1.2483   29.9710    8.8202 C   0  0  0  0  0  0  0  0  0  0  0  0
    0.0999   29.7503    8.5635 C   0  0  0  0  0  0  0  0  0  0  0  0
    0.6028   28.7857    7.7636 N   0  0  0  0  0  0  0  0  0  0  0  0
   -0.3561   28.0263    7.2038 C   0  0  0  0  0  0  0  0  0  0  0  0
   -1.7332   28.1326    7.3705 C   0  0  0  0  0  0  0  0  0  0  0  0
   -2.3169   27.1133    6.5639 C   0  0  0  0  0  0  0  0  0  0  0  0
   -1.2944   26.4233    5.9471 C   0  0  0  0  0  0  0  0  0  0  0  0
   -0.1112   26.9894    6.3460 N   0  0  0  0  0  0  0  0  0  0  0  0
    0.8159   26.7100    6.0623 H   0  0  0  0  0  0  0  0  0  0  0  0
  1  2  1  0  0  0
  2  3  1  0  0  0
  2 14  1  0  0  0
 14 16  1  0  0  0
 16 17  1  0  0  0
 17 18  2  0  0  0
 18 19  1  0  0  0
 19 20  2  0  0  0
 20 21  1  0  0  0
 21 22  2  0  0  0
 22 23  1  0  0  0
 23 24  2  0  0  0
 24 25  1  0  0  0
  2  4  1  0  0  0
  4  5  1  0  0  0
  4  7  1  0  0  0
  7  8  1  0  0  0
  8  9  2  0  0  0
  9 10  1  0  0  0
 10 11  1  0  0  0
 10 12  2  0  0  0
 12 13  1  0  0  0
 22 17  1  0  0  0
 13  7  2  0  0  0
 25 21  1  0  0  0
 14 15  1  0  0  0
 25 26  1  0  0  0
  5  6  1  0  0  0
M  END
> <minimizedAffinity>
-8.96124

$$$$
OCNT-2316883


 26 28  0  0  0  0  0  0  0  0999 V2000
   -5.8584   27.7445    4.3621 C   0  0  0  0  0  0  0  0  0  0  0  0
   -4.6813   28.4270    4.8779 N   0  0  0  0  0  0  0  0  0  0  0  0
   -4.7246   28.9849    6.1318 C   0  0  0  0  0  0  0  0  0  0  0  0
   -5.6623   28.8891    6.9086 O   0  0  0  0  0  0  0  0  0  0  0  0
   -3.5602   29.6641    6.4004 N   0  0  0  0  0  0  0  0  0  0  0  0
   -4.1783   28.9984    4.2145 H   0  0  0  0  0  0  0  0  0  0  0  0
   -2.7525   29.2803    5.9298 H   0  0  0  0  0  0  0  0  0  0  0  0
   -3.3547   30.2679    7.7058 C   0  0  0  0  0  0  0  0  0  0  0  0
   -3.3130   31.8040    7.6249 C   0  0  0  0  0  0  0  0  0  0  0  0
   -1.9495   32.2088    8.1746 C   0  0  0  0  0  0  0  0  0  0  0  0
   -1.6037   31.0681    9.1043 C   0  0  0  0  0  0  0  0  0  0  0  0
   -2.2998   31.1816   10.2577 F   0  0  0  0  0  0  0  0  0  0  0  0
   -0.2948   31.0491    9.4108 F   0  0  0  0  0  0  0  0  0  0  0  0
   -2.0322   29.8354    8.3469 C   0  0  0  0  0  0  0  0  0  0  0  0
   -5.5181   26.8639    3.1608 C   0  0  0  0  0  0  0  0  0  0  0  0
   -7.3668   23.0338   -0.7033 C   0  0  0  0  0  0  0  0  0  0  0  0
   -6.8345   23.0776    0.6994 C   0  0  0  0  0  0  0  0  0  0  0  0
   -6.7378   21.9040    1.4533 C   0  0  0  0  0  0  0  0  0  0  0  0
   -6.2765   21.9207    2.7739 C   0  0  0  0  0  0  0  0  0  0  0  0
   -5.9236   23.1580    3.3229 C   0  0  0  0  0  0  0  0  0  0  0  0
   -5.4513   23.4682    4.5762 N   0  0  0  0  0  0  0  0  0  0  0  0
   -5.2429   24.8165    4.6837 C   0  0  0  0  0  0  0  0  0  0  0  0
   -5.5854   25.4061    3.4823 C   0  0  0  0  0  0  0  0  0  0  0  0
   -6.0170   24.3534    2.6117 C   0  0  0  0  0  0  0  0  0  0  0  0
   -6.4865   24.3085    1.2814 C   0  0  0  0  0  0  0  0  0  0  0  0
   -5.2878   22.7924    5.3095 H   0  0  0  0  0  0  0  0  0  0  0  0
 16 17  1  0  0  0
 17 18  2  0  0  0
 18 19  1  0  0  0
 19 20  2  0  0  0
 20 21  1  0  0  0
 21 22  1  0  0  0
 22 23  2  0  0  0
 23 15  1  0  0  0
 15  1  1  0  0  0
  1  2  1  0  0  0
  2  3  1  0  0  0
  3  4  2  0  0  0
  3  5  1  0  0  0
  5  8  1  0  0  0
  8  9  1  0  0  0
  9 10  1  0  0  0
 10 11  1  0  0  0
 11 12  1  0  0  0
 11 13  1  0  0  0
 11 14  1  0  0  0
 23 24  1  0  0  0
 24 25  2  0  0  0
 25 17  1  0  0  0
 24 20  1  0  0  0
 14  8  1  0  0  0
 21 26  1  0  0  0
  2  6  1  0  0  0
  5  7  1  0  0  0
M  END
> <minimizedAffinity>
-9.62187

$$$$
OCNT-2316908


 21 23  0  0  0  0  0  0  0  0999 V2000
  -10.1014   22.3027    8.8616 C   0  0  0  0  0  0  0  0  0  0  0  0
   -9.2938   22.0864    7.6100 C   0  0  0  0  0  0  0  0  0  0  0  0
   -7.9029   22.2714    7.6530 C   0  0  0  0  0  0  0  0  0  0  0  0
   -7.1588   22.0720    6.4993 C   0  0  0  0  0  0  0  0  0  0  0  0
   -7.7633   21.6932    5.3037 C   0  0  0  0  0  0  0  0  0  0  0  0
   -9.1334   21.5052    5.2387 C   0  0  0  0  0  0  0  0  0  0  0  0
   -9.9135   21.7006    6.3946 C   0  0  0  0  0  0  0  0  0  0  0  0
  -11.4024   21.4930    6.3104 C   0  0  0  0  0  0  0  0  0  0  0  0
   -6.7948   21.5574    4.2898 N   0  0  0  0  0  0  0  0  0  0  0  0
   -7.0429   21.1919    2.9706 C   0  0  0  0  0  0  0  0  0  0  0  0
   -8.1599   20.9375    2.5196 O   0  0  0  0  0  0  0  0  0  0  0  0
   -5.4758   21.8694    4.8680 C   0  0  0  0  0  0  0  0  0  0  0  0
   -5.6810   22.2181    6.3467 C   0  0  0  0  0  0  0  0  0  0  0  0
   -5.7932   21.1220    2.0773 C   0  0  0  0  0  0  0  0  0  0  0  0
   -6.0795   21.5306    0.7446 O   0  0  0  0  0  0  0  0  0  0  0  0
   -6.1488   22.8719    0.5091 C   0  0  0  0  0  0  0  0  0  0  0  0
   -7.1313   23.2715   -0.3936 C   0  0  0  0  0  0  0  0  0  0  0  0
   -7.2854   24.6205   -0.7034 C   0  0  0  0  0  0  0  0  0  0  0  0
   -6.4418   25.5329   -0.0929 C   0  0  0  0  0  0  0  0  0  0  0  0
   -5.4772   25.1881    0.7871 N   0  0  0  0  0  0  0  0  0  0  0  0
   -5.3545   23.8665    1.0662 C   0  0  0  0  0  0  0  0  0  0  0  0
  1  2  1  0  0  0
  2  3  1  0  0  0
  3  4  2  0  0  0
  4  5  1  0  0  0
  5  6  2  0  0  0
  6  7  1  0  0  0
  7  8  1  0  0  0
  5  9  1  0  0  0
  9 10  1  0  0  0
 10 11  2  0  0  0
 10 14  1  0  0  0
 14 15  1  0  0  0
 15 16  1  0  0  0
 16 17  1  0  0  0
 17 18  2  0  0  0
 18 19  1  0  0  0
 19 20  2  0  0  0
 20 21  1  0  0  0
  9 12  1  0  0  0
 12 13  1  0  0  0
  7  2  2  0  0  0
 21 16  2  0  0  0
 13  4  1  0  0  0
M  END
> <minimizedAffinity>
-8.59228

$$$$
OCNT-2316911


 25 27  0  0  0  0  0  0  0  0999 V2000
   -3.4692   26.9169    4.9271 N   0  0  0  0  0  0  0  0  0  0  0  0
   -2.2121   26.8129    5.4919 C   0  0  0  0  0  0  0  0  0  0  0  0
   -1.3658   25.9693    5.2191 O   0  0  0  0  0  0  0  0  0  0  0  0
   -4.1333   27.5800    5.2974 H   0  0  0  0  0  0  0  0  0  0  0  0
   -5.7282   24.7909    5.2658 C   0  0  0  0  0  0  0  0  0  0  0  0
   -4.9343   25.1533    4.0635 C   0  0  0  0  0  0  0  0  0  0  0  0
   -3.9309   26.0959    3.9115 C   0  0  0  0  0  0  0  0  0  0  0  0
   -3.5471   26.0056    2.5605 C   0  0  0  0  0  0  0  0  0  0  0  0
   -4.2380   25.0775    1.8994 N   0  0  0  0  0  0  0  0  0  0  0  0
   -5.0657   24.5525    2.8268 N   0  0  0  0  0  0  0  0  0  0  0  0
   -5.9495   23.4866    2.3880 C   0  0  0  0  0  0  0  0  0  0  0  0
   -5.3530   22.0815    2.5311 C   0  0  0  0  0  0  0  0  0  0  0  0
   -6.0647   21.2719    1.4581 C   0  0  0  0  0  0  0  0  0  0  0  0
   -6.1726   22.2446    0.2946 C   0  0  0  0  0  0  0  0  0  0  0  0
   -6.4754   23.5921    0.9456 C   0  0  0  0  0  0  0  0  0  0  0  0
   -1.8937   27.8126    6.5409 C   0  0  0  0  0  0  0  0  0  0  0  0
   -0.6473   27.9098    7.1634 C   0  0  0  0  0  0  0  0  0  0  0  0
   -0.4504   28.8826    8.1441 C   0  0  0  0  0  0  0  0  0  0  0  0
   -1.5045   29.7233    8.4717 C   0  0  0  0  0  0  0  0  0  0  0  0
   -2.7268   29.6359    7.9108 N   0  0  0  0  0  0  0  0  0  0  0  0
   -2.8958   28.6813    6.9591 C   0  0  0  0  0  0  0  0  0  0  0  0
   -1.2677   30.6433    9.4628 O   0  0  0  0  0  0  0  0  0  0  0  0
   -2.0582   31.8065    9.3139 C   0  0  0  0  0  0  0  0  0  0  0  0
   -1.3511   32.7260    8.6084 F   0  0  0  0  0  0  0  0  0  0  0  0
   -2.2129   32.3314   10.5608 F   0  0  0  0  0  0  0  0  0  0  0  0
  5  6  1  0  0  0
  6  7  2  0  0  0
  7  1  1  0  0  0
  1  2  1  0  0  0
  2  3  2  0  0  0
  2 16  1  0  0  0
 16 17  2  0  0  0
 17 18  1  0  0  0
 18 19  2  0  0  0
 19 22  1  0  0  0
 22 23  1  0  0  0
 23 24  1  0  0  0
 23 25  1  0  0  0
 19 20  1  0  0  0
 20 21  2  0  0  0
  7  8  1  0  0  0
  8  9  2  0  0  0
  9 10  1  0  0  0
 10 11  1  0  0  0
 11 12  1  0  0  0
 12 13  1  0  0  0
 13 14  1  0  0  0
 14 15  1  0  0  0
 10  6  1  0  0  0
 15 11  1  0  0  0
 21 16  1  0  0  0
  1  4  1  0  0  0
M  END
> <minimizedAffinity>
-8.87413

$$$$
OCNT-2316921


 27 29  0  0  0  0  0  0  0  0999 V2000
   -5.9375   28.6323    5.9754 C   0  0  0  0  0  0  0  0  0  0  0  0
   -6.8493   28.5380    6.7904 O   0  0  0  0  0  0  0  0  0  0  0  0
   -4.6181   28.8532    6.3202 N   0  0  0  0  0  0  0  0  0  0  0  0
   -3.9287   28.9411    5.5830 H   0  0  0  0  0  0  0  0  0  0  0  0
   -6.1627   28.4703    4.4816 C   0  0  0  0  0  0  0  0  0  0  0  0
   -5.4673   25.4509    2.2487 C   0  0  0  0  0  0  0  0  0  0  0  0
   -5.6423   26.7663    2.6933 C   0  0  0  0  0  0  0  0  0  0  0  0
   -5.9494   27.0440    4.0381 C   0  0  0  0  0  0  0  0  0  0  0  0
   -6.0892   25.9839    4.9358 C   0  0  0  0  0  0  0  0  0  0  0  0
   -5.9267   24.6676    4.5010 C   0  0  0  0  0  0  0  0  0  0  0  0
   -5.6178   24.3904    3.1604 C   0  0  0  0  0  0  0  0  0  0  0  0
   -5.4443   22.9630    2.7132 C   0  0  0  0  0  0  0  0  0  0  0  0
   -6.1840   25.2522   -0.0165 C   0  0  0  0  0  0  0  0  0  0  0  0
   -5.1579   25.0949    0.9583 O   0  0  0  0  0  0  0  0  0  0  0  0
   -4.1719   28.9572    7.7003 C   0  0  0  0  0  0  0  0  0  0  0  0
   -3.3338   30.2450    8.0244 C   0  0  0  0  0  0  0  0  0  0  0  0
   -3.8348   31.4362    7.1370 C   0  0  0  0  0  0  0  0  0  0  0  0
   -3.7603   32.8060    7.8186 C   0  0  0  0  0  0  0  0  0  0  0  0
   -2.6870   32.8834    8.7421 O   0  0  0  0  0  0  0  0  0  0  0  0
   -2.8170   31.9713    9.8313 C   0  0  0  0  0  0  0  0  0  0  0  0
   -3.5959   30.6979    9.4859 C   0  0  0  0  0  0  0  0  0  0  0  0
   -1.8661   29.9680    7.8809 N   0  0  0  0  0  0  0  0  0  0  0  0
   -1.4026   28.6446    8.3148 C   0  0  0  0  0  0  0  0  0  0  0  0
    0.1103   28.6605    8.5776 C   0  0  0  0  0  0  0  0  0  0  0  0
    0.8958   29.4262    7.5161 C   0  0  0  0  0  0  0  0  0  0  0  0
    0.0532   29.6366    6.2586 C   0  0  0  0  0  0  0  0  0  0  0  0
   -1.2642   30.3605    6.5925 C   0  0  0  0  0  0  0  0  0  0  0  0
 13 14  1  0  0  0
 14  6  1  0  0  0
  6  7  1  0  0  0
  7  8  2  0  0  0
  8  5  1  0  0  0
  5  1  1  0  0  0
  1  2  2  0  0  0
  1  3  1  0  0  0
  3 15  1  0  0  0
 15 16  1  0  0  0
 16 22  1  0  0  0
 22 23  1  0  0  0
 23 24  1  0  0  0
 24 25  1  0  0  0
 25 26  1  0  0  0
 26 27  1  0  0  0
 16 17  1  0  0  0
 17 18  1  0  0  0
 18 19  1  0  0  0
 19 20  1  0  0  0
 20 21  1  0  0  0
  8  9  1  0  0  0
  9 10  2  0  0  0
 10 11  1  0  0  0
 11 12  1  0  0  0
 11  6  2  0  0  0
 21 16  1  0  0  0
 27 22  1  0  0  0
  3  4  1  0  0  0
M  END
> <minimizedAffinity>
-9.04203

$$$$
OCNT-2316942


 22 26  0  0  0  0  0  0  0  0999 V2000
   -5.5935   27.9267    4.5993 C   0  0  0  0  0  0  0  0  0  0  0  0
   -6.2388   29.0449    4.2230 N   0  0  0  0  0  0  0  0  0  0  0  0
   -5.7243   30.0302    5.0598 O   0  0  0  0  0  0  0  0  0  0  0  0
   -4.8240   29.4166    5.8787 C   0  0  0  0  0  0  0  0  0  0  0  0
   -4.7069   28.1270    5.6469 N   0  0  0  0  0  0  0  0  0  0  0  0
   -4.1548   30.2553    6.9115 C   0  0  0  0  0  0  0  0  0  0  0  0
   -2.8815   29.5583    7.4612 C   0  0  0  0  0  0  0  0  0  0  0  0
   -2.4290   30.0628    8.7711 N   0  0  0  0  0  0  0  0  0  0  0  0
   -1.0073   30.3986    8.8637 C   0  0  0  0  0  0  0  0  0  0  0  0
   -1.1071   31.8480    9.3172 C   0  0  0  0  0  0  0  0  0  0  0  0
   -2.1491   32.4381    8.3301 C   0  0  0  0  0  0  0  0  0  0  0  0
   -3.0647   31.3746    9.0581 C   0  0  0  0  0  0  0  0  0  0  0  0
   -4.5735   31.3933    8.9786 C   0  0  0  0  0  0  0  0  0  0  0  0
   -5.1030   30.5303    7.9526 O   0  0  0  0  0  0  0  0  0  0  0  0
   -2.2851   31.8494   10.3398 C   0  0  0  0  0  0  0  0  0  0  0  0
   -5.7017   24.9733    0.5659 C   0  0  0  0  0  0  0  0  0  0  0  0
   -5.8280   25.1787    2.0447 C   0  0  0  0  0  0  0  0  0  0  0  0
   -6.1943   24.1249    2.8812 C   0  0  0  0  0  0  0  0  0  0  0  0
   -6.3300   24.3714    4.2376 C   0  0  0  0  0  0  0  0  0  0  0  0
   -6.1373   25.5801    4.8058 N   0  0  0  0  0  0  0  0  0  0  0  0
   -5.7962   26.6091    3.9865 C   0  0  0  0  0  0  0  0  0  0  0  0
   -5.6377   26.4436    2.6100 C   0  0  0  0  0  0  0  0  0  0  0  0
 16 17  1  0  0  0
 17 18  2  0  0  0
 18 19  1  0  0  0
 19 20  2  0  0  0
 20 21  1  0  0  0
 21  1  1  0  0  0
  1  2  2  0  0  0
  2  3  1  0  0  0
  3  4  1  0  0  0
  4  6  1  0  0  0
  6  7  1  0  0  0
  7  8  1  0  0  0
  8  9  1  0  0  0
  9 10  1  0  0  0
 10 11  1  0  0  0
 11 12  1  0  0  0
 12 13  1  0  0  0
 13 14  1  0  0  0
 12 15  1  0  0  0
  4  5  2  0  0  0
 21 22  2  0  0  0
 22 17  1  0  0  0
  5  1  1  0  0  0
 14  6  1  0  0  0
 12  8  1  0  0  0
 15 10  1  0  0  0
M  END
> <minimizedAffinity>
-9.26300

$$$$
OCNT-2316951


 30 33  0  0  0  0  0  0  0  0999 V2000
   -1.2304   29.4785    7.1042 N   0  0  0  0  0  0  0  0  0  0  0  0
   -2.3969   28.6481    7.4260 C   0  0  0  0  0  0  0  0  0  0  0  0
   -2.8859   27.8609    6.1960 C   0  0  0  0  0  0  0  0  0  0  0  0
   -1.8342   27.0585    5.5671 N   0  0  0  0  0  0  0  0  0  0  0  0
   -2.0413   26.0801    4.6165 C   0  0  0  0  0  0  0  0  0  0  0  0
   -1.1554   25.3106    4.2535 O   0  0  0  0  0  0  0  0  0  0  0  0
   -3.3049   26.0233    4.0995 N   0  0  0  0  0  0  0  0  0  0  0  0
   -0.4906   27.2338    6.1109 C   0  0  0  0  0  0  0  0  0  0  0  0
   -0.1615   28.7076    6.4344 C   0  0  0  0  0  0  0  0  0  0  0  0
   -3.9947   26.6947    4.3873 H   0  0  0  0  0  0  0  0  0  0  0  0
   -0.7616   30.2367    8.2702 C   0  0  0  0  0  0  0  0  0  0  0  0
   -4.3508   33.7708    9.1538 C   0  0  0  0  0  0  0  0  0  0  0  0
   -3.2979   32.7334    9.2169 C   0  0  0  0  0  0  0  0  0  0  0  0
   -2.8177   32.3281   10.3983 N   0  0  0  0  0  0  0  0  0  0  0  0
   -1.8633   31.3695   10.1073 O   0  0  0  0  0  0  0  0  0  0  0  0
   -1.7699   31.2153    8.7576 C   0  0  0  0  0  0  0  0  0  0  0  0
   -2.6608   32.0654    8.1474 C   0  0  0  0  0  0  0  0  0  0  0  0
   -3.6982   25.0288    3.1304 C   0  0  0  0  0  0  0  0  0  0  0  0
   -4.9814   24.3597    3.5487 C   0  0  0  0  0  0  0  0  0  0  0  0
   -5.3867   24.3820    4.8880 C   0  0  0  0  0  0  0  0  0  0  0  0
   -6.5876   23.7814    5.2861 C   0  0  0  0  0  0  0  0  0  0  0  0
   -7.4164   23.1467    4.3472 C   0  0  0  0  0  0  0  0  0  0  0  0
   -7.0067   23.1370    3.0088 C   0  0  0  0  0  0  0  0  0  0  0  0
   -7.7372   22.5636    2.0441 F   0  0  0  0  0  0  0  0  0  0  0  0
   -5.8088   23.7358    2.6115 C   0  0  0  0  0  0  0  0  0  0  0  0
   -8.6374   22.5382    4.7620 N   0  0  0  0  0  0  0  0  0  0  0  0
   -9.6481   23.1248    5.5008 C   0  0  0  0  0  0  0  0  0  0  0  0
  -10.6220   22.1688    5.6591 C   0  0  0  0  0  0  0  0  0  0  0  0
  -10.2599   21.0079    5.0475 N   0  0  0  0  0  0  0  0  0  0  0  0
   -9.0766   21.2515    4.5253 C   0  0  0  0  0  0  0  0  0  0  0  0
 12 13  1  0  0  0
 13 14  2  0  0  0
 14 15  1  0  0  0
 15 16  1  0  0  0
 16 11  1  0  0  0
 11  1  1  0  0  0
  1  2  1  0  0  0
  2  3  1  0  0  0
  3  4  1  0  0  0
  4  5  1  0  0  0
  5  6  2  0  0  0
  5  7  1  0  0  0
  7 18  1  0  0  0
 18 19  1  0  0  0
 19 20  1  0  0  0
 20 21  2  0  0  0
 21 22  1  0  0  0
 22 26  1  0  0  0
 26 27  1  0  0  0
 27 28  2  0  0  0
 28 29  1  0  0  0
 29 30  2  0  0  0
 22 23  2  0  0  0
 23 24  1  0  0  0
 23 25  1  0  0  0
  4  8  1  0  0  0
  8  9  1  0  0  0
 16 17  2  0  0  0
 17 13  1  0  0  0
  9  1  1  0  0  0
 25 19  2  0  0  0
 30 26  1  0  0  0
  7 10  1  0  0  0
M  END
> <minimizedAffinity>
-8.94357

$$$$
OCNT-2316959


 24 26  0  0  0  0  0  0  0  0999 V2000
   -5.9997   23.7907    5.0349 C   0  0  0  0  0  0  0  0  0  0  0  0
   -4.8735   24.8207    4.9320 C   0  0  0  0  0  0  0  0  0  0  0  0
   -5.3941   26.2443    5.2173 C   0  0  0  0  0  0  0  0  0  0  0  0
   -4.3803   27.3468    4.8880 C   0  0  0  0  0  0  0  0  0  0  0  0
   -3.0632   26.7783    4.6196 N   0  0  0  0  0  0  0  0  0  0  0  0
   -2.0358   26.6965    5.5587 C   0  0  0  0  0  0  0  0  0  0  0  0
   -1.0806   25.9323    5.4003 O   0  0  0  0  0  0  0  0  0  0  0  0
   -3.0349   25.8809    3.4648 C   0  0  0  0  0  0  0  0  0  0  0  0
   -4.0403   24.7142    3.6216 C   0  0  0  0  0  0  0  0  0  0  0  0
   -4.8380   24.5350    2.4134 N   0  0  0  0  0  0  0  0  0  0  0  0
   -5.5147   25.5264    1.7532 C   0  0  0  0  0  0  0  0  0  0  0  0
   -6.1221   24.9001    0.6907 C   0  0  0  0  0  0  0  0  0  0  0  0
   -5.8377   23.5607    0.6913 N   0  0  0  0  0  0  0  0  0  0  0  0
   -5.0660   23.3698    1.7369 C   0  0  0  0  0  0  0  0  0  0  0  0
   -2.1507   27.5685    6.8271 C   0  0  0  0  0  0  0  0  0  0  0  0
   -2.3970   26.7128    7.9500 O   0  0  0  0  0  0  0  0  0  0  0  0
   -1.6012   26.1622    8.0627 H   0  0  0  0  0  0  0  0  0  0  0  0
   -0.8686   28.3892    7.0501 C   0  0  0  0  0  0  0  0  0  0  0  0
   -1.1540   29.7747    7.5885 C   0  0  0  0  0  0  0  0  0  0  0  0
   -1.8851   30.7009    6.8325 C   0  0  0  0  0  0  0  0  0  0  0  0
   -2.1368   31.9805    7.3301 C   0  0  0  0  0  0  0  0  0  0  0  0
   -1.6605   32.3474    8.5870 C   0  0  0  0  0  0  0  0  0  0  0  0
   -0.9308   31.4357    9.3469 C   0  0  0  0  0  0  0  0  0  0  0  0
   -0.6771   30.1558    8.8507 C   0  0  0  0  0  0  0  0  0  0  0  0
  1  2  1  0  0  0
  2  3  1  0  0  0
  3  4  1  0  0  0
  4  5  1  0  0  0
  5  6  1  0  0  0
  6  7  2  0  0  0
  6 15  1  0  0  0
 15 16  1  0  0  0
 15 18  1  0  0  0
 18 19  1  0  0  0
 19 20  2  0  0  0
 20 21  1  0  0  0
 21 22  2  0  0  0
 22 23  1  0  0  0
 23 24  2  0  0  0
  5  8  1  0  0  0
  8  9  1  0  0  0
  9 10  1  0  0  0
 10 11  1  0  0  0
 11 12  2  0  0  0
 12 13  1  0  0  0
 13 14  2  0  0  0
  9  2  1  0  0  0
 14 10  1  0  0  0
 24 19  1  0  0  0
 16 17  1  0  0  0
M  END
> <minimizedAffinity>
-9.00896

$$$$
OCNT-2316968


 26 29  0  0  0  0  0  0  0  0999 V2000
   -4.7318   25.3140    2.6008 N   0  0  0  0  0  0  0  0  0  0  0  0
   -5.6665   26.3892    3.0170 C   0  0  0  0  0  0  0  0  0  0  0  0
   -5.8564   26.3958    4.5517 C   0  0  0  0  0  0  0  0  0  0  0  0
   -4.5561   26.4478    5.2360 N   0  0  0  0  0  0  0  0  0  0  0  0
   -3.9522   27.6335    5.6614 C   0  0  0  0  0  0  0  0  0  0  0  0
   -2.7288   27.7139    5.7819 O   0  0  0  0  0  0  0  0  0  0  0  0
   -3.6833   25.3263    4.8716 C   0  0  0  0  0  0  0  0  0  0  0  0
   -3.4517   25.2944    3.3477 C   0  0  0  0  0  0  0  0  0  0  0  0
   -5.8497   24.0560    0.8082 C   0  0  0  0  0  0  0  0  0  0  0  0
   -6.4287   22.8543    0.3995 C   0  0  0  0  0  0  0  0  0  0  0  0
   -6.4969   21.7355    1.1561 N   0  0  0  0  0  0  0  0  0  0  0  0
   -5.9498   21.8175    2.3810 C   0  0  0  0  0  0  0  0  0  0  0  0
   -5.3575   22.9651    2.8896 C   0  0  0  0  0  0  0  0  0  0  0  0
   -5.3112   24.1337    2.1165 C   0  0  0  0  0  0  0  0  0  0  0  0
   -6.9062   25.5703   -0.7035 C   0  0  0  0  0  0  0  0  0  0  0  0
   -5.7456   25.1729    0.0145 O   0  0  0  0  0  0  0  0  0  0  0  0
   -4.8806   28.8070    5.9435 C   0  0  0  0  0  0  0  0  0  0  0  0
   -4.7007   29.3909    7.3121 C   0  0  0  0  0  0  0  0  0  0  0  0
   -5.6044   29.0784    8.2440 N   0  0  0  0  0  0  0  0  0  0  0  0
   -5.2184   29.8518    9.6506 S   0  0  0  0  0  0  0  0  0  0  0  0
   -3.8414   30.6816    9.0484 C   0  0  0  0  0  0  0  0  0  0  0  0
   -2.9832   31.5785    9.7072 C   0  0  0  0  0  0  0  0  0  0  0  0
   -1.9186   32.1268    8.9885 C   0  0  0  0  0  0  0  0  0  0  0  0
   -1.7143   31.7892    7.6561 C   0  0  0  0  0  0  0  0  0  0  0  0
   -2.5752   30.8949    7.0101 C   0  0  0  0  0  0  0  0  0  0  0  0
   -3.6662   30.3236    7.7098 C   0  0  0  0  0  0  0  0  0  0  0  0
 15 16  1  0  0  0
 16  9  1  0  0  0
  9 10  2  0  0  0
 10 11  1  0  0  0
 11 12  2  0  0  0
 12 13  1  0  0  0
 13 14  2  0  0  0
 14  1  1  0  0  0
  1  2  1  0  0  0
  2  3  1  0  0  0
  3  4  1  0  0  0
  4  5  1  0  0  0
  5  6  2  0  0  0
  5 17  1  0  0  0
 17 18  1  0  0  0
 18 19  2  0  0  0
 19 20  1  0  0  0
 20 21  1  0  0  0
 21 22  2  0  0  0
 22 23  1  0  0  0
 23 24  2  0  0  0
 24 25  1  0  0  0
 25 26  2  0  0  0
  4  7  1  0  0  0
  7  8  1  0  0  0
 14  9  1  0  0  0
  8  1  1  0  0  0
 26 18  1  0  0  0
 26 21  1  0  0  0
M  END
> <minimizedAffinity>
-8.80829

$$$$
OCNT-2316971


 25 28  0  0  0  0  0  0  0  0999 V2000
   -5.7061   28.7830    5.7549 C   0  0  0  0  0  0  0  0  0  0  0  0
   -6.4508   27.7831    6.1930 N   0  0  0  0  0  0  0  0  0  0  0  0
   -6.4816   26.7964    5.2345 N   0  0  0  0  0  0  0  0  0  0  0  0
   -5.7405   27.1912    4.2245 C   0  0  0  0  0  0  0  0  0  0  0  0
   -5.2387   28.4350    4.5124 N   0  0  0  0  0  0  0  0  0  0  0  0
   -4.6153   28.9734    3.9282 H   0  0  0  0  0  0  0  0  0  0  0  0
   -4.9410   32.3820    7.8158 C   0  0  0  0  0  0  0  0  0  0  0  0
   -4.0259   31.9724    6.8512 C   0  0  0  0  0  0  0  0  0  0  0  0
   -4.2513   30.7863    6.1489 C   0  0  0  0  0  0  0  0  0  0  0  0
   -5.3932   30.0392    6.4354 C   0  0  0  0  0  0  0  0  0  0  0  0
   -6.2920   30.4251    7.3717 N   0  0  0  0  0  0  0  0  0  0  0  0
   -6.0506   31.5807    8.0362 C   0  0  0  0  0  0  0  0  0  0  0  0
   -4.5758   34.6060    9.1697 C   0  0  0  0  0  0  0  0  0  0  0  0
   -4.7426   33.5903    8.5512 C   0  0  0  0  0  0  0  0  0  0  0  0
   -5.4754   26.4340    2.9575 C   0  0  0  0  0  0  0  0  0  0  0  0
   -3.9889   26.3351    2.6730 C   0  0  0  0  0  0  0  0  0  0  0  0
   -3.5654   25.0910    3.4277 C   0  0  0  0  0  0  0  0  0  0  0  0
   -4.7465   24.3151    3.6965 O   0  0  0  0  0  0  0  0  0  0  0  0
   -5.8816   24.9598    3.0667 C   0  0  0  0  0  0  0  0  0  0  0  0
   -6.2326   24.3075    1.7377 C   0  0  0  0  0  0  0  0  0  0  0  0
   -6.1590   22.9092    1.6120 C   0  0  0  0  0  0  0  0  0  0  0  0
   -6.4635   22.2808    0.4027 C   0  0  0  0  0  0  0  0  0  0  0  0
   -6.8348   23.0400   -0.7035 C   0  0  0  0  0  0  0  0  0  0  0  0
   -6.8946   24.4274   -0.6029 C   0  0  0  0  0  0  0  0  0  0  0  0
   -6.5904   25.0569    0.6065 C   0  0  0  0  0  0  0  0  0  0  0  0
 13 14  3  0  0  0
 14  7  1  0  0  0
  7  8  2  0  0  0
  8  9  1  0  0  0
  9 10  2  0  0  0
 10  1  1  0  0  0
  1  2  2  0  0  0
  2  3  1  0  0  0
  3  4  2  0  0  0
  4 15  1  0  0  0
 15 16  1  0  0  0
 16 17  1  0  0  0
 17 18  1  0  0  0
 18 19  1  0  0  0
 19 20  1  0  0  0
 20 21  2  0  0  0
 21 22  1  0  0  0
 22 23  2  0  0  0
 23 24  1  0  0  0
 24 25  2  0  0  0
  4  5  1  0  0  0
 10 11  1  0  0  0
 11 12  2  0  0  0
 12  7  1  0  0  0
  5  1  1  0  0  0
 19 15  1  0  0  0
 25 20  1  0  0  0
  5  6  1  0  0  0
M  END
> <minimizedAffinity>
-9.51807

$$$$
OCNT-2316975


 22 23  0  0  0  0  0  0  0  0999 V2000
   -5.0495   29.9747    8.7813 S   0  0  0  0  0  0  0  0  0  0  0  0
   -5.8264   31.1880    8.6626 O   0  0  0  0  0  0  0  0  0  0  0  0
   -5.3524   28.9708    9.7775 O   0  0  0  0  0  0  0  0  0  0  0  0
   -1.0066   29.8439    8.5283 C   0  0  0  0  0  0  0  0  0  0  0  0
   -0.6372   31.0341    9.1724 C   0  0  0  0  0  0  0  0  0  0  0  0
   -1.6070   31.8942    9.6933 C   0  0  0  0  0  0  0  0  0  0  0  0
   -2.9586   31.5756    9.5774 C   0  0  0  0  0  0  0  0  0  0  0  0
   -3.3318   30.3942    8.9324 C   0  0  0  0  0  0  0  0  0  0  0  0
   -2.3659   29.5226    8.4183 C   0  0  0  0  0  0  0  0  0  0  0  0
    0.5666   29.3519    6.6378 C   0  0  0  0  0  0  0  0  0  0  0  0
    0.0455   28.9050    7.9949 C   0  0  0  0  0  0  0  0  0  0  0  0
   -5.0796   29.1914    7.3035 N   0  0  0  0  0  0  0  0  0  0  0  0
   -5.3123   28.2015    7.3425 H   0  0  0  0  0  0  0  0  0  0  0  0
   -5.2608   29.9554    6.0732 C   0  0  0  0  0  0  0  0  0  0  0  0
   -6.4373   29.3602    5.3008 C   0  0  0  0  0  0  0  0  0  0  0  0
   -6.0374   28.8455    3.9143 C   0  0  0  0  0  0  0  0  0  0  0  0
   -5.9527   27.3450    3.8255 C   0  0  0  0  0  0  0  0  0  0  0  0
   -5.7266   26.6929    2.6097 C   0  0  0  0  0  0  0  0  0  0  0  0
   -5.6664   25.3032    2.5700 C   0  0  0  0  0  0  0  0  0  0  0  0
   -5.8296   24.6057    3.7541 C   0  0  0  0  0  0  0  0  0  0  0  0
   -6.0420   25.1969    4.9484 N   0  0  0  0  0  0  0  0  0  0  0  0
   -6.0947   26.5477    4.9579 C   0  0  0  0  0  0  0  0  0  0  0  0
 10 11  1  0  0  0
 11  4  1  0  0  0
  4  5  1  0  0  0
  5  6  2  0  0  0
  6  7  1  0  0  0
  7  8  2  0  0  0
  8  1  1  0  0  0
  1  2  2  0  0  0
  1  3  2  0  0  0
  1 12  1  0  0  0
 12 14  1  0  0  0
 14 15  1  0  0  0
 15 16  1  0  0  0
 16 17  1  0  0  0
 17 18  1  0  0  0
 18 19  2  0  0  0
 19 20  1  0  0  0
 20 21  2  0  0  0
 21 22  1  0  0  0
  8  9  1  0  0  0
  9  4  2  0  0  0
 22 17  2  0  0  0
 12 13  1  0  0  0
M  END
> <minimizedAffinity>
-8.29845

$$$$
OCNT-2316976


 25 28  0  0  0  0  0  0  0  0999 V2000
   -3.7673   25.2250    3.3919 O   0  0  0  0  0  0  0  0  0  0  0  0
   -4.9589   25.0272    3.1771 C   0  0  0  0  0  0  0  0  0  0  0  0
   -5.9919   25.8955    3.4763 N   0  0  0  0  0  0  0  0  0  0  0  0
   -6.9276   25.5729    3.2513 H   0  0  0  0  0  0  0  0  0  0  0  0
   -5.3539   23.7329    2.5386 C   0  0  0  0  0  0  0  0  0  0  0  0
   -4.9657   22.5294    3.1574 C   0  0  0  0  0  0  0  0  0  0  0  0
   -5.3072   21.2821    2.6042 C   0  0  0  0  0  0  0  0  0  0  0  0
   -6.0431   21.2143    1.4222 C   0  0  0  0  0  0  0  0  0  0  0  0
   -6.4154   22.4024    0.8290 C   0  0  0  0  0  0  0  0  0  0  0  0
   -6.0851   23.6302    1.3641 C   0  0  0  0  0  0  0  0  0  0  0  0
   -6.5657   24.6539    0.5978 O   0  0  0  0  0  0  0  0  0  0  0  0
   -7.2244   23.9315   -0.4651 C   0  0  0  0  0  0  0  0  0  0  0  0
   -7.1330   22.5040   -0.3224 O   0  0  0  0  0  0  0  0  0  0  0  0
   -5.9113   27.1732    4.0688 C   0  0  0  0  0  0  0  0  0  0  0  0
   -6.0768   28.2756    3.2227 C   0  0  0  0  0  0  0  0  0  0  0  0
   -6.0128   29.5742    3.7273 C   0  0  0  0  0  0  0  0  0  0  0  0
   -5.7813   29.7834    5.0866 C   0  0  0  0  0  0  0  0  0  0  0  0
   -5.6108   28.6972    5.9544 C   0  0  0  0  0  0  0  0  0  0  0  0
   -5.6755   27.3942    5.4291 C   0  0  0  0  0  0  0  0  0  0  0  0
   -5.3654   28.9283    7.3706 C   0  0  0  0  0  0  0  0  0  0  0  0
   -4.1234   29.0618    7.9560 C   0  0  0  0  0  0  0  0  0  0  0  0
   -4.3402   29.2556    9.2891 N   0  0  0  0  0  0  0  0  0  0  0  0
   -5.6396   29.2498    9.6265 N   0  0  0  0  0  0  0  0  0  0  0  0
   -6.2610   29.0538    8.4601 C   0  0  0  0  0  0  0  0  0  0  0  0
   -3.6525   29.3942   10.0218 H   0  0  0  0  0  0  0  0  0  0  0  0
  1  2  2  0  0  0
  2  3  1  0  0  0
  3 14  1  0  0  0
 14 15  2  0  0  0
 15 16  1  0  0  0
 16 17  2  0  0  0
 17 18  1  0  0  0
 18 20  1  0  0  0
 20 21  2  0  0  0
 21 22  1  0  0  0
 22 23  1  0  0  0
 23 24  2  0  0  0
 18 19  2  0  0  0
  2  5  1  0  0  0
  5  6  2  0  0  0
  6  7  1  0  0  0
  7  8  2  0  0  0
  8  9  1  0  0  0
  9 10  2  0  0  0
 10 11  1  0  0  0
 11 12  1  0  0  0
 12 13  1  0  0  0
 19 14  1  0  0  0
 10  5  1  0  0  0
 24 20  1  0  0  0
 13  9  1  0  0  0
  3  4  1  0  0  0
 22 25  1  0  0  0
M  END
> <minimizedAffinity>
-9.47680

$$$$
OCNT-2316987


 27 30  0  0  0  0  0  0  0  0999 V2000
   -4.2680   28.6095    6.2155 N   0  0  0  0  0  0  0  0  0  0  0  0
   -2.9026   28.0788    6.0453 C   0  0  0  0  0  0  0  0  0  0  0  0
   -2.7902   26.5432    6.0919 C   0  0  0  0  0  0  0  0  0  0  0  0
   -3.7388   25.9156    5.1735 N   0  0  0  0  0  0  0  0  0  0  0  0
   -3.2865   25.6703    3.8761 C   0  0  0  0  0  0  0  0  0  0  0  0
   -2.1853   26.0310    3.4653 O   0  0  0  0  0  0  0  0  0  0  0  0
   -5.1243   26.3312    5.4291 C   0  0  0  0  0  0  0  0  0  0  0  0
   -5.2567   27.8732    5.4103 C   0  0  0  0  0  0  0  0  0  0  0  0
   -4.1921   24.8561    2.9960 C   0  0  0  0  0  0  0  0  0  0  0  0
   -4.8679   25.4682    2.0128 C   0  0  0  0  0  0  0  0  0  0  0  0
   -5.7391   24.6751    1.1424 C   0  0  0  0  0  0  0  0  0  0  0  0
   -6.4725   25.2766    0.1150 C   0  0  0  0  0  0  0  0  0  0  0  0
   -7.2994   24.5008   -0.7031 C   0  0  0  0  0  0  0  0  0  0  0  0
   -7.3989   23.1227   -0.5021 C   0  0  0  0  0  0  0  0  0  0  0  0
   -6.6711   22.5119    0.5187 C   0  0  0  0  0  0  0  0  0  0  0  0
   -5.8447   23.2885    1.3366 C   0  0  0  0  0  0  0  0  0  0  0  0
   -5.0595   22.6541    2.4272 C   0  0  0  0  0  0  0  0  0  0  0  0
   -5.1059   21.4494    2.6460 O   0  0  0  0  0  0  0  0  0  0  0  0
   -4.2798   23.4965    3.1837 N   0  0  0  0  0  0  0  0  0  0  0  0
   -3.7152   23.0662    3.9069 H   0  0  0  0  0  0  0  0  0  0  0  0
   -6.1371   29.0756    7.8939 C   0  0  0  0  0  0  0  0  0  0  0  0
   -4.6409   28.9447    7.5961 C   0  0  0  0  0  0  0  0  0  0  0  0
   -3.8342   30.1738    8.0000 C   0  0  0  0  0  0  0  0  0  0  0  0
   -2.9049   30.2591    9.0241 C   0  0  0  0  0  0  0  0  0  0  0  0
   -2.1992   31.8105    9.1691 S   0  0  0  0  0  0  0  0  0  0  0  0
   -3.1238   32.4114    7.8670 C   0  0  0  0  0  0  0  0  0  0  0  0
   -3.9491   31.4469    7.3349 C   0  0  0  0  0  0  0  0  0  0  0  0
 21 22  1  0  0  0
 22 23  1  0  0  0
 23 24  2  0  0  0
 24 25  1  0  0  0
 25 26  1  0  0  0
 26 27  2  0  0  0
 22  1  1  0  0  0
  1  2  1  0  0  0
  2  3  1  0  0  0
  3  4  1  0  0  0
  4  5  1  0  0  0
  5  6  2  0  0  0
  5  9  1  0  0  0
  9 10  2  0  0  0
 10 11  1  0  0  0
 11 12  2  0  0  0
 12 13  1  0  0  0
 13 14  2  0  0  0
 14 15  1  0  0  0
 15 16  2  0  0  0
 16 17  1  0  0  0
 17 18  2  0  0  0
 17 19  1  0  0  0
  4  7  1  0  0  0
  7  8  1  0  0  0
 27 23  1  0  0  0
  8  1  1  0  0  0
 19  9  1  0  0  0
 16 11  1  0  0  0
 19 20  1  0  0  0
M  END
> <minimizedAffinity>
-9.69186

$$$$
OCNT-2317028


 24 26  0  0  0  0  0  0  0  0999 V2000
   -2.1976   29.1626    7.9217 N   0  0  0  0  0  0  0  0  0  0  0  0
   -1.2476   28.0042    7.8296 C   0  0  0  0  0  0  0  0  0  0  0  0
   -1.0990   27.4817    6.3970 C   0  0  0  0  0  0  0  0  0  0  0  0
   -2.3832   27.0704    5.8253 N   0  0  0  0  0  0  0  0  0  0  0  0
   -2.3593   26.2092    4.7305 C   0  0  0  0  0  0  0  0  0  0  0  0
   -1.3012   25.8895    4.1915 O   0  0  0  0  0  0  0  0  0  0  0  0
   -3.5498   27.8528    6.2540 C   0  0  0  0  0  0  0  0  0  0  0  0
   -3.1645   29.2440    6.7779 C   0  0  0  0  0  0  0  0  0  0  0  0
   -3.6176   25.6777    4.2323 C   0  0  0  0  0  0  0  0  0  0  0  0
   -3.9353   25.5018    2.8980 C   0  0  0  0  0  0  0  0  0  0  0  0
   -5.1923   24.9463    2.8332 N   0  0  0  0  0  0  0  0  0  0  0  0
   -5.6989   24.7423    4.0773 N   0  0  0  0  0  0  0  0  0  0  0  0
   -4.7359   25.1507    4.9038 C   0  0  0  0  0  0  0  0  0  0  0  0
   -5.9402   24.5995    1.6762 C   0  0  0  0  0  0  0  0  0  0  0  0
   -5.9374   25.4588    0.5728 C   0  0  0  0  0  0  0  0  0  0  0  0
   -6.6732   25.0964   -0.5420 C   0  0  0  0  0  0  0  0  0  0  0  0
   -7.3951   23.9592   -0.6267 N   0  0  0  0  0  0  0  0  0  0  0  0
   -7.3829   23.1479    0.4516 C   0  0  0  0  0  0  0  0  0  0  0  0
   -6.6801   23.4166    1.6159 C   0  0  0  0  0  0  0  0  0  0  0  0
   -1.5322   30.6644    8.3623 S   0  0  0  0  0  0  0  0  0  0  0  0
   -0.2296   30.4229    8.9425 O   0  0  0  0  0  0  0  0  0  0  0  0
   -1.6846   31.5513    7.2267 O   0  0  0  0  0  0  0  0  0  0  0  0
   -3.2839   32.6014    9.3382 C   0  0  0  0  0  0  0  0  0  0  0  0
   -2.6587   31.2544    9.6217 C   0  0  0  0  0  0  0  0  0  0  0  0
 23 24  1  0  0  0
 24 20  1  0  0  0
 20 21  2  0  0  0
 20 22  2  0  0  0
 20  1  1  0  0  0
  1  2  1  0  0  0
  2  3  1  0  0  0
  3  4  1  0  0  0
  4  5  1  0  0  0
  5  6  2  0  0  0
  5  9  1  0  0  0
  9 10  2  0  0  0
 10 11  1  0  0  0
 11 14  1  0  0  0
 14 15  2  0  0  0
 15 16  1  0  0  0
 16 17  2  0  0  0
 17 18  1  0  0  0
 18 19  2  0  0  0
 11 12  1  0  0  0
 12 13  2  0  0  0
  4  7  1  0  0  0
  7  8  1  0  0  0
  8  1  1  0  0  0
 13  9  1  0  0  0
 19 14  1  0  0  0
M  END
> <minimizedAffinity>
-8.68603

$$$$
OCNT-2317040


 25 27  0  0  0  0  0  0  0  0999 V2000
   -0.9676   26.8005    5.6346 O   0  0  0  0  0  0  0  0  0  0  0  0
   -2.0709   26.7490    6.1670 C   0  0  0  0  0  0  0  0  0  0  0  0
   -2.5356   27.5412    7.2030 N   0  0  0  0  0  0  0  0  0  0  0  0
   -3.2709   27.0863    7.7464 H   0  0  0  0  0  0  0  0  0  0  0  0
   -1.8779   28.6126    7.8516 C   0  0  0  0  0  0  0  0  0  0  0  0
   -0.5027   28.4432    8.0617 C   0  0  0  0  0  0  0  0  0  0  0  0
    0.3167   29.3366    8.6575 N   0  0  0  0  0  0  0  0  0  0  0  0
   -0.2660   30.4678    9.0907 C   0  0  0  0  0  0  0  0  0  0  0  0
   -1.6282   30.7443    8.9753 C   0  0  0  0  0  0  0  0  0  0  0  0
   -2.4687   29.7849    8.3598 C   0  0  0  0  0  0  0  0  0  0  0  0
   -3.9559   30.0513    8.3092 C   0  0  0  0  0  0  0  0  0  0  0  0
   -4.4385   31.0623    9.3497 C   0  0  0  0  0  0  0  0  0  0  0  0
   -3.5995   32.3267    9.2586 C   0  0  0  0  0  0  0  0  0  0  0  0
   -2.1471   32.0159    9.5987 C   0  0  0  0  0  0  0  0  0  0  0  0
   -3.0925   25.7163    5.7267 C   0  0  0  0  0  0  0  0  0  0  0  0
   -4.0891   26.3057    4.7654 C   0  0  0  0  0  0  0  0  0  0  0  0
   -4.4833   25.6134    3.6274 C   0  0  0  0  0  0  0  0  0  0  0  0
   -5.4177   26.1973    2.7792 C   0  0  0  0  0  0  0  0  0  0  0  0
   -5.9398   27.4491    3.0900 C   0  0  0  0  0  0  0  0  0  0  0  0
   -5.5192   28.0893    4.2553 C   0  0  0  0  0  0  0  0  0  0  0  0
   -4.5927   27.5268    5.0901 N   0  0  0  0  0  0  0  0  0  0  0  0
   -6.0836   29.4638    4.5937 C   0  0  0  0  0  0  0  0  0  0  0  0
   -7.1568   29.3990    5.4319 F   0  0  0  0  0  0  0  0  0  0  0  0
   -5.1776   30.2732    5.2167 F   0  0  0  0  0  0  0  0  0  0  0  0
   -6.5029   30.1585    3.4966 F   0  0  0  0  0  0  0  0  0  0  0  0
  1  2  2  0  0  0
  2 15  1  0  0  0
 15 16  1  0  0  0
 16 17  2  0  0  0
 17 18  1  0  0  0
 18 19  2  0  0  0
 19 20  1  0  0  0
 20 22  1  0  0  0
 22 23  1  0  0  0
 22 24  1  0  0  0
 22 25  1  0  0  0
 20 21  2  0  0  0
  2  3  1  0  0  0
  3  5  1  0  0  0
  5  6  1  0  0  0
  6  7  2  0  0  0
  7  8  1  0  0  0
  8  9  2  0  0  0
  9 10  1  0  0  0
 10 11  1  0  0  0
 11 12  1  0  0  0
 12 13  1  0  0  0
 13 14  1  0  0  0
 21 16  1  0  0  0
 10  5  2  0  0  0
 14  9  1  0  0  0
  3  4  1  0  0  0
M  END
> <minimizedAffinity>
-9.55214

$$$$
OCNT-2317064


 27 30  0  0  0  0  0  0  0  0999 V2000
   -6.0886   27.2601    3.9851 N   0  0  0  0  0  0  0  0  0  0  0  0
   -5.4014   28.4609    3.5251 C   0  0  0  0  0  0  0  0  0  0  0  0
   -6.1344   29.7038    4.0376 C   0  0  0  0  0  0  0  0  0  0  0  0
   -6.7982   29.5239    5.4066 C   0  0  0  0  0  0  0  0  0  0  0  0
   -6.1961   28.3847    6.2344 C   0  0  0  0  0  0  0  0  0  0  0  0
   -6.1847   27.0627    5.4359 C   0  0  0  0  0  0  0  0  0  0  0  0
   -4.8320   28.7320    6.7733 C   0  0  0  0  0  0  0  0  0  0  0  0
   -3.6753   28.1980    6.4352 N   0  0  0  0  0  0  0  0  0  0  0  0
   -2.7268   28.8439    7.1881 C   0  0  0  0  0  0  0  0  0  0  0  0
   -3.3128   29.8009    8.0052 C   0  0  0  0  0  0  0  0  0  0  0  0
   -2.5871   30.6072    8.8827 C   0  0  0  0  0  0  0  0  0  0  0  0
   -1.1993   30.4145    8.9112 C   0  0  0  0  0  0  0  0  0  0  0  0
   -0.5677   29.4679    8.0904 C   0  0  0  0  0  0  0  0  0  0  0  0
    0.9180   29.2676    8.1632 C   0  0  0  0  0  0  0  0  0  0  0  0
   -1.3363   28.6653    7.2281 C   0  0  0  0  0  0  0  0  0  0  0  0
   -4.6501   29.7163    7.7182 N   0  0  0  0  0  0  0  0  0  0  0  0
   -5.3767   30.2806    8.1333 H   0  0  0  0  0  0  0  0  0  0  0  0
   -5.4570   23.8263    3.2319 C   0  0  0  0  0  0  0  0  0  0  0  0
   -5.4254   23.7834    1.8669 C   0  0  0  0  0  0  0  0  0  0  0  0
   -5.6253   24.9903    1.2599 C   0  0  0  0  0  0  0  0  0  0  0  0
   -5.8361   26.1382    1.9246 N   0  0  0  0  0  0  0  0  0  0  0  0
   -5.8449   26.0917    3.2642 C   0  0  0  0  0  0  0  0  0  0  0  0
   -5.6602   24.9478    3.9445 N   0  0  0  0  0  0  0  0  0  0  0  0
   -5.1236   21.5195    2.9929 C   0  0  0  0  0  0  0  0  0  0  0  0
   -5.2585   22.6227    3.8830 O   0  0  0  0  0  0  0  0  0  0  0  0
   -5.6016   24.9887   -0.1225 O   0  0  0  0  0  0  0  0  0  0  0  0
   -6.8682   25.2844   -0.7033 C   0  0  0  0  0  0  0  0  0  0  0  0
 24 25  1  0  0  0
 25 18  1  0  0  0
 18 19  2  0  0  0
 19 20  1  0  0  0
 20 26  1  0  0  0
 26 27  1  0  0  0
 20 21  2  0  0  0
 21 22  1  0  0  0
 22  1  1  0  0  0
  1  2  1  0  0  0
  2  3  1  0  0  0
  3  4  1  0  0  0
  4  5  1  0  0  0
  5  7  1  0  0  0
  7  8  2  0  0  0
  8  9  1  0  0  0
  9 10  1  0  0  0
 10 11  2  0  0  0
 11 12  1  0  0  0
 12 13  2  0  0  0
 13 14  1  0  0  0
 13 15  1  0  0  0
 10 16  1  0  0  0
  5  6  1  0  0  0
 22 23  2  0  0  0
 23 18  1  0  0  0
  6  1  1  0  0  0
 16  7  1  0  0  0
 15  9  2  0  0  0
 16 17  1  0  0  0
M  END
> <minimizedAffinity>
-9.58579

$$$$
OCNT-2317084


 25 27  0  0  0  0  0  0  0  0999 V2000
   -2.1837   26.6071    6.1008 C   0  0  0  0  0  0  0  0  0  0  0  0
   -2.4106   25.6549    6.8432 O   0  0  0  0  0  0  0  0  0  0  0  0
   -3.1506   27.1759    5.3005 N   0  0  0  0  0  0  0  0  0  0  0  0
   -2.8258   27.8111    4.5717 H   0  0  0  0  0  0  0  0  0  0  0  0
   -4.4360   26.5370    5.1320 C   0  0  0  0  0  0  0  0  0  0  0  0
   -4.5178   25.8024    3.8277 C   0  0  0  0  0  0  0  0  0  0  0  0
   -3.7852   24.6898    3.4414 C   0  0  0  0  0  0  0  0  0  0  0  0
   -4.0059   24.1515    2.1739 C   0  0  0  0  0  0  0  0  0  0  0  0
   -4.9527   24.7231    1.3127 C   0  0  0  0  0  0  0  0  0  0  0  0
   -5.6903   25.8391    1.7122 C   0  0  0  0  0  0  0  0  0  0  0  0
   -5.4633   26.3679    2.9732 C   0  0  0  0  0  0  0  0  0  0  0  0
   -6.1098   27.5740    3.5799 C   0  0  0  0  0  0  0  0  0  0  0  0
   -5.6181   27.5496    5.0410 C   0  0  0  0  0  0  0  0  0  0  0  0
   -6.6922   27.1501    5.9052 O   0  0  0  0  0  0  0  0  0  0  0  0
   -6.3316   27.1807    6.8116 H   0  0  0  0  0  0  0  0  0  0  0  0
   -0.8284   27.2842    6.0251 C   0  0  0  0  0  0  0  0  0  0  0  0
   -1.5657   30.0315    8.2566 C   0  0  0  0  0  0  0  0  0  0  0  0
   -1.8268   29.1329    7.3266 N   0  0  0  0  0  0  0  0  0  0  0  0
   -0.7070   28.3594    7.0549 C   0  0  0  0  0  0  0  0  0  0  0  0
    0.4162   28.7027    7.7778 C   0  0  0  0  0  0  0  0  0  0  0  0
    0.0655   30.0134    8.8197 S   0  0  0  0  0  0  0  0  0  0  0  0
   -2.9995   31.9970    7.6536 C   0  0  0  0  0  0  0  0  0  0  0  0
   -2.5893   31.0327    8.7862 C   0  0  0  0  0  0  0  0  0  0  0  0
   -1.9770   31.8575    9.9322 C   0  0  0  0  0  0  0  0  0  0  0  0
   -3.8619   30.3243    9.2840 C   0  0  0  0  0  0  0  0  0  0  0  0
 22 23  1  0  0  0
 23 24  1  0  0  0
 23 25  1  0  0  0
 23 17  1  0  0  0
 17 18  2  0  0  0
 18 19  1  0  0  0
 19 16  1  0  0  0
 16  1  1  0  0  0
  1  2  2  0  0  0
  1  3  1  0  0  0
  3  5  1  0  0  0
  5  6  1  0  0  0
  6  7  2  0  0  0
  7  8  1  0  0  0
  8  9  2  0  0  0
  9 10  1  0  0  0
 10 11  2  0  0  0
 11 12  1  0  0  0
 12 13  1  0  0  0
 13 14  1  0  0  0
 19 20  2  0  0  0
 20 21  1  0  0  0
 21 17  1  0  0  0
 13  5  1  0  0  0
 11  6  1  0  0  0
  3  4  1  0  0  0
 14 15  1  0  0  0
M  END
> <minimizedAffinity>
-8.86875

$$$$
OCNT-2317090


 25 29  0  0  0  0  0  0  0  0999 V2000
   -7.0033   21.9388    1.5453 C   0  0  0  0  0  0  0  0  0  0  0  0
   -6.1641   22.5989    0.6493 C   0  0  0  0  0  0  0  0  0  0  0  0
   -5.5110   23.7676    1.0407 C   0  0  0  0  0  0  0  0  0  0  0  0
   -5.7024   24.2808    2.3245 C   0  0  0  0  0  0  0  0  0  0  0  0
   -5.0090   25.4184    2.6263 O   0  0  0  0  0  0  0  0  0  0  0  0
   -5.3478   26.1369    3.8388 C   0  0  0  0  0  0  0  0  0  0  0  0
   -6.1423   25.3273    4.8513 C   0  0  0  0  0  0  0  0  0  0  0  0
   -6.7018   24.1466    4.5728 C   0  0  0  0  0  0  0  0  0  0  0  0
   -6.5369   23.6204    3.2284 C   0  0  0  0  0  0  0  0  0  0  0  0
   -7.1876   22.4461    2.8335 C   0  0  0  0  0  0  0  0  0  0  0  0
   -6.1394   27.3888    3.3997 C   0  0  0  0  0  0  0  0  0  0  0  0
   -6.2492   28.4419    4.5017 C   0  0  0  0  0  0  0  0  0  0  0  0
   -4.8722   28.8123    5.0532 C   0  0  0  0  0  0  0  0  0  0  0  0
   -4.1895   27.5970    5.5310 N   0  0  0  0  0  0  0  0  0  0  0  0
   -3.9943   26.5834    4.4639 C   0  0  0  0  0  0  0  0  0  0  0  0
   -2.9839   27.8861    6.2072 C   0  0  0  0  0  0  0  0  0  0  0  0
   -1.9055   27.0182    6.0711 C   0  0  0  0  0  0  0  0  0  0  0  0
   -0.7200   27.2885    6.7466 C   0  0  0  0  0  0  0  0  0  0  0  0
   -0.6188   28.4053    7.5515 C   0  0  0  0  0  0  0  0  0  0  0  0
    0.5391   28.6598    8.2027 N   0  0  0  0  0  0  0  0  0  0  0  0
    0.5482   29.7675    8.9688 C   0  0  0  0  0  0  0  0  0  0  0  0
   -0.5566   30.5841    9.0759 C   0  0  0  0  0  0  0  0  0  0  0  0
   -1.7127   30.3290    8.4241 N   0  0  0  0  0  0  0  0  0  0  0  0
   -1.7608   29.2358    7.6530 C   0  0  0  0  0  0  0  0  0  0  0  0
   -2.8988   28.9714    7.0018 N   0  0  0  0  0  0  0  0  0  0  0  0
  1  2  2  0  0  0
  2  3  1  0  0  0
  3  4  2  0  0  0
  4  5  1  0  0  0
  5  6  1  0  0  0
  6  7  1  0  0  0
  7  8  2  0  0  0
  8  9  1  0  0  0
  9 10  2  0  0  0
  6 11  1  0  0  0
 11 12  1  0  0  0
 12 13  1  0  0  0
 13 14  1  0  0  0
 14 16  1  0  0  0
 16 17  2  0  0  0
 17 18  1  0  0  0
 18 19  2  0  0  0
 19 20  1  0  0  0
 20 21  2  0  0  0
 21 22  1  0  0  0
 22 23  2  0  0  0
 23 24  1  0  0  0
 24 25  2  0  0  0
 14 15  1  0  0  0
 10  1  1  0  0  0
 25 16  1  0  0  0
  9  4  1  0  0  0
 24 19  1  0  0  0
 15  6  1  0  0  0
M  END
> <minimizedAffinity>
-10.33748

$$$$
OCNT-2317099


 26 28  0  0  0  0  0  0  0  0999 V2000
   -5.5157   29.4985    5.5960 N   0  0  0  0  0  0  0  0  0  0  0  0
   -6.3147   29.9442    6.6299 C   0  0  0  0  0  0  0  0  0  0  0  0
   -7.5127   30.1885    6.4976 O   0  0  0  0  0  0  0  0  0  0  0  0
   -4.5557   29.2476    5.7843 H   0  0  0  0  0  0  0  0  0  0  0  0
   -6.0515   29.2058    4.2886 C   0  0  0  0  0  0  0  0  0  0  0  0
   -5.6028   25.8498    2.5274 C   0  0  0  0  0  0  0  0  0  0  0  0
   -5.8380   24.9685    3.5855 C   0  0  0  0  0  0  0  0  0  0  0  0
   -6.1473   25.4497    4.8575 C   0  0  0  0  0  0  0  0  0  0  0  0
   -6.2243   26.8226    5.0798 C   0  0  0  0  0  0  0  0  0  0  0  0
   -5.9988   27.7231    4.0292 C   0  0  0  0  0  0  0  0  0  0  0  0
   -5.6795   27.2261    2.7534 C   0  0  0  0  0  0  0  0  0  0  0  0
   -5.3090   23.8222    1.3185 C   0  0  0  0  0  0  0  0  0  0  0  0
   -5.3056   25.2442    1.3370 O   0  0  0  0  0  0  0  0  0  0  0  0
   -5.5729   30.1101    7.9629 C   0  0  0  0  0  0  0  0  0  0  0  0
   -4.8714   31.3933    8.0189 N   0  0  0  0  0  0  0  0  0  0  0  0
   -5.3366   32.3135    9.0498 C   0  0  0  0  0  0  0  0  0  0  0  0
   -4.3149   33.4262    8.9496 C   0  0  0  0  0  0  0  0  0  0  0  0
   -3.0051   32.7034    8.6706 C   0  0  0  0  0  0  0  0  0  0  0  0
   -3.3998   31.3123    8.1463 C   0  0  0  0  0  0  0  0  0  0  0  0
   -2.8393   30.1695    9.0483 C   0  0  0  0  0  0  0  0  0  0  0  0
   -1.6481   29.4670    8.5226 N   0  0  0  0  0  0  0  0  0  0  0  0
   -1.7473   29.3439    7.0588 C   0  0  0  0  0  0  0  0  0  0  0  0
   -0.5722   28.5519    6.4852 C   0  0  0  0  0  0  0  0  0  0  0  0
    0.7568   29.1924    6.8652 C   0  0  0  0  0  0  0  0  0  0  0  0
    0.8281   29.3966    8.3732 C   0  0  0  0  0  0  0  0  0  0  0  0
   -0.3975   30.1458    8.9015 C   0  0  0  0  0  0  0  0  0  0  0  0
 12 13  1  0  0  0
 13  6  1  0  0  0
  6  7  1  0  0  0
  7  8  2  0  0  0
  8  9  1  0  0  0
  9 10  2  0  0  0
 10  5  1  0  0  0
  5  1  1  0  0  0
  1  2  1  0  0  0
  2  3  2  0  0  0
  2 14  1  0  0  0
 14 15  1  0  0  0
 15 16  1  0  0  0
 16 17  1  0  0  0
 17 18  1  0  0  0
 18 19  1  0  0  0
 19 20  1  0  0  0
 20 21  1  0  0  0
 21 22  1  0  0  0
 22 23  1  0  0  0
 23 24  1  0  0  0
 24 25  1  0  0  0
 25 26  1  0  0  0
 10 11  1  0  0  0
 11  6  2  0  0  0
 19 15  1  0  0  0
 26 21  1  0  0  0
  1  4  1  0  0  0
M  END
> <minimizedAffinity>
-8.88298

$$$$
OCNT-2317105


 21 23  0  0  0  0  0  0  0  0999 V2000
   -4.9161   28.7497    6.0130 C   0  0  0  0  0  0  0  0  0  0  0  0
   -3.8266   28.2008    5.8329 O   0  0  0  0  0  0  0  0  0  0  0  0
   -5.0950   29.6381    7.0604 N   0  0  0  0  0  0  0  0  0  0  0  0
   -6.3440   30.2662    7.4708 C   0  0  0  0  0  0  0  0  0  0  0  0
   -5.9548   31.1917    8.6115 C   0  0  0  0  0  0  0  0  0  0  0  0
   -4.7778   30.4637    9.2475 C   0  0  0  0  0  0  0  0  0  0  0  0
   -4.0271   29.8751    8.0440 C   0  0  0  0  0  0  0  0  0  0  0  0
   -6.1078   29.6733    4.0211 C   0  0  0  0  0  0  0  0  0  0  0  0
   -6.0835   28.5469    5.0512 C   0  0  0  0  0  0  0  0  0  0  0  0
   -6.0498   27.2361    4.4166 N   0  0  0  0  0  0  0  0  0  0  0  0
   -6.1941   26.0023    4.9753 C   0  0  0  0  0  0  0  0  0  0  0  0
   -5.9960   25.0780    4.0632 N   0  0  0  0  0  0  0  0  0  0  0  0
   -5.7272   25.8058    2.9417 C   0  0  0  0  0  0  0  0  0  0  0  0
   -5.7330   27.1311    3.1062 N   0  0  0  0  0  0  0  0  0  0  0  0
   -2.9467   30.8198    7.4762 C   0  0  0  0  0  0  0  0  0  0  0  0
   -1.5443   30.2789    7.6201 C   0  0  0  0  0  0  0  0  0  0  0  0
   -0.8243   29.8753    6.4869 C   0  0  0  0  0  0  0  0  0  0  0  0
    0.4697   29.3687    6.6138 C   0  0  0  0  0  0  0  0  0  0  0  0
    1.0572   29.2628    7.8728 C   0  0  0  0  0  0  0  0  0  0  0  0
    0.3523   29.6656    9.0056 C   0  0  0  0  0  0  0  0  0  0  0  0
   -0.9421   30.1731    8.8810 C   0  0  0  0  0  0  0  0  0  0  0  0
  8  9  1  0  0  0
  9  1  1  0  0  0
  1  2  2  0  0  0
  1  3  1  0  0  0
  3  4  1  0  0  0
  4  5  1  0  0  0
  5  6  1  0  0  0
  6  7  1  0  0  0
  7 15  1  0  0  0
 15 16  1  0  0  0
 16 17  2  0  0  0
 17 18  1  0  0  0
 18 19  2  0  0  0
 19 20  1  0  0  0
 20 21  2  0  0  0
  9 10  1  0  0  0
 10 11  1  0  0  0
 11 12  2  0  0  0
 12 13  1  0  0  0
 13 14  2  0  0  0
  7  3  1  0  0  0
 21 16  1  0  0  0
 14 10  1  0  0  0
M  END
> <minimizedAffinity>
-8.30348

$$$$
OCNT-2317109


 25 27  0  0  0  0  0  0  0  0999 V2000
   -6.4780   28.7281    6.1200 C   0  0  0  0  0  0  0  0  0  0  0  0
   -7.1086   29.7591    5.9155 O   0  0  0  0  0  0  0  0  0  0  0  0
   -5.9570   28.3897    7.3521 N   0  0  0  0  0  0  0  0  0  0  0  0
   -5.2626   27.6589    7.4092 H   0  0  0  0  0  0  0  0  0  0  0  0
   -5.7290   25.8885    3.0598 C   0  0  0  0  0  0  0  0  0  0  0  0
   -5.7227   27.2381    2.7098 C   0  0  0  0  0  0  0  0  0  0  0  0
   -5.9643   28.1991    3.6934 C   0  0  0  0  0  0  0  0  0  0  0  0
   -6.2119   27.7902    5.0039 C   0  0  0  0  0  0  0  0  0  0  0  0
   -6.1811   26.4290    5.2713 C   0  0  0  0  0  0  0  0  0  0  0  0
   -5.9543   25.4769    4.3313 N   0  0  0  0  0  0  0  0  0  0  0  0
   -6.1246   23.5008    2.4082 C   0  0  0  0  0  0  0  0  0  0  0  0
   -5.4680   24.8238    2.0119 C   0  0  0  0  0  0  0  0  0  0  0  0
   -5.9553   25.2830    0.6368 C   0  0  0  0  0  0  0  0  0  0  0  0
   -6.0621   29.2866    8.4819 C   0  0  0  0  0  0  0  0  0  0  0  0
   -4.8193   30.1268    8.6182 C   0  0  0  0  0  0  0  0  0  0  0  0
   -4.9066   31.4404    9.0843 C   0  0  0  0  0  0  0  0  0  0  0  0
   -3.7493   32.1912    9.1716 C   0  0  0  0  0  0  0  0  0  0  0  0
   -2.5292   31.7274    8.8278 N   0  0  0  0  0  0  0  0  0  0  0  0
   -2.4451   30.4514    8.3700 C   0  0  0  0  0  0  0  0  0  0  0  0
   -3.5631   29.6264    8.2485 C   0  0  0  0  0  0  0  0  0  0  0  0
   -1.1524   29.9787    8.0071 N   0  0  0  0  0  0  0  0  0  0  0  0
   -0.7143   29.7431    6.7203 C   0  0  0  0  0  0  0  0  0  0  0  0
    0.5786   29.2946    6.8345 C   0  0  0  0  0  0  0  0  0  0  0  0
    0.9591   29.2446    8.1471 N   0  0  0  0  0  0  0  0  0  0  0  0
   -0.0906   29.6606    8.8230 C   0  0  0  0  0  0  0  0  0  0  0  0
 11 12  1  0  0  0
 12 13  1  0  0  0
 12  5  1  0  0  0
  5  6  2  0  0  0
  6  7  1  0  0  0
  7  8  2  0  0  0
  8  1  1  0  0  0
  1  2  2  0  0  0
  1  3  1  0  0  0
  3 14  1  0  0  0
 14 15  1  0  0  0
 15 16  2  0  0  0
 16 17  1  0  0  0
 17 18  2  0  0  0
 18 19  1  0  0  0
 19 21  1  0  0  0
 21 22  1  0  0  0
 22 23  2  0  0  0
 23 24  1  0  0  0
 24 25  2  0  0  0
 19 20  2  0  0  0
  8  9  1  0  0  0
  9 10  2  0  0  0
 10  5  1  0  0  0
 20 15  1  0  0  0
 25 21  1  0  0  0
  3  4  1  0  0  0
M  END
> <minimizedAffinity>
-8.87109

$$$$
OCNT-2317112


 24 25  0  0  0  0  0  0  0  0999 V2000
   -1.3584   28.3366    6.9786 N   0  0  0  0  0  0  0  0  0  0  0  0
   -0.1667   28.7507    6.2459 C   0  0  0  0  0  0  0  0  0  0  0  0
   -2.1997   29.1883    7.6947 C   0  0  0  0  0  0  0  0  0  0  0  0
   -3.2179   28.7632    8.2476 O   0  0  0  0  0  0  0  0  0  0  0  0
   -1.7719   30.6692    7.8441 C   0  0  0  0  0  0  0  0  0  0  0  0
   -0.9107   30.8124    9.1116 C   0  0  0  0  0  0  0  0  0  0  0  0
   -1.4544   32.0520    9.8145 C   0  0  0  0  0  0  0  0  0  0  0  0
   -2.9222   32.0587    9.4322 C   0  0  0  0  0  0  0  0  0  0  0  0
   -2.9122   31.5619    8.0752 N   0  0  0  0  0  0  0  0  0  0  0  0
   -3.9052   31.8779    7.1968 C   0  0  0  0  0  0  0  0  0  0  0  0
   -3.7611   31.3938    5.9387 N   0  0  0  0  0  0  0  0  0  0  0  0
   -4.8852   32.5598    7.4724 O   0  0  0  0  0  0  0  0  0  0  0  0
   -4.4974   31.7206    5.3268 H   0  0  0  0  0  0  0  0  0  0  0  0
   -2.8434   31.4539    5.5311 H   0  0  0  0  0  0  0  0  0  0  0  0
   -1.7776   26.9424    6.8028 C   0  0  0  0  0  0  0  0  0  0  0  0
   -4.6159   26.9261    4.2600 C   0  0  0  0  0  0  0  0  0  0  0  0
   -4.0076   26.3909    3.1306 C   0  0  0  0  0  0  0  0  0  0  0  0
   -2.6612   26.0188    3.1740 C   0  0  0  0  0  0  0  0  0  0  0  0
   -1.9128   26.1790    4.3459 C   0  0  0  0  0  0  0  0  0  0  0  0
   -0.0998   25.6119    4.2857 Br  0  0  0  0  0  0  0  0  0  0  0  0
   -2.5057   26.7205    5.4961 C   0  0  0  0  0  0  0  0  0  0  0  0
   -3.8650   27.0836    5.4290 C   0  0  0  0  0  0  0  0  0  0  0  0
   -6.1615   28.7246    4.4409 C   0  0  0  0  0  0  0  0  0  0  0  0
   -5.9198   27.3254    4.3587 O   0  0  0  0  0  0  0  0  0  0  0  0
 23 24  1  0  0  0
 24 16  1  0  0  0
 16 17  1  0  0  0
 17 18  2  0  0  0
 18 19  1  0  0  0
 19 20  1  0  0  0
 19 21  2  0  0  0
 21 15  1  0  0  0
 15  1  1  0  0  0
  1  2  1  0  0  0
  1  3  1  0  0  0
  3  4  2  0  0  0
  3  5  1  0  0  0
  5  6  1  0  0  0
  6  7  1  0  0  0
  7  8  1  0  0  0
  8  9  1  0  0  0
  9 10  1  0  0  0
 10 11  1  0  0  0
 10 12  2  0  0  0
 21 22  1  0  0  0
 22 16  2  0  0  0
  9  5  1  0  0  0
 11 13  1  0  0  0
 11 14  1  0  0  0
M  END
> <minimizedAffinity>
-8.17634

$$$$
OCNT-2317130


 28 31  0  0  0  0  0  0  0  0999 V2000
   -5.1378   26.8553    5.1950 C   0  0  0  0  0  0  0  0  0  0  0  0
   -6.0119   26.1458    4.3526 C   0  0  0  0  0  0  0  0  0  0  0  0
   -5.5431   25.4919    3.2144 C   0  0  0  0  0  0  0  0  0  0  0  0
   -4.1978   25.5510    2.9060 C   0  0  0  0  0  0  0  0  0  0  0  0
   -3.7432   24.9370    1.8063 F   0  0  0  0  0  0  0  0  0  0  0  0
   -3.3066   26.2405    3.7201 C   0  0  0  0  0  0  0  0  0  0  0  0
   -3.7468   26.8986    4.8878 C   0  0  0  0  0  0  0  0  0  0  0  0
   -2.7773   27.5961    5.7787 C   0  0  0  0  0  0  0  0  0  0  0  0
   -3.0269   28.7382    6.3983 N   0  0  0  0  0  0  0  0  0  0  0  0
   -1.9492   29.1122    7.1913 C   0  0  0  0  0  0  0  0  0  0  0  0
   -1.8707   30.2648    7.9993 C   0  0  0  0  0  0  0  0  0  0  0  0
   -0.7157   30.5173    8.7473 C   0  0  0  0  0  0  0  0  0  0  0  0
    0.3587   29.6350    8.7038 C   0  0  0  0  0  0  0  0  0  0  0  0
    0.3045   28.4823    7.9157 C   0  0  0  0  0  0  0  0  0  0  0  0
   -0.8613   28.2412    7.1686 C   0  0  0  0  0  0  0  0  0  0  0  0
   -1.2243   26.9263    6.1305 S   0  0  0  0  0  0  0  0  0  0  0  0
   -6.3519   28.7373    6.3452 C   0  0  0  0  0  0  0  0  0  0  0  0
   -6.8078   29.3142    5.3602 O   0  0  0  0  0  0  0  0  0  0  0  0
   -5.6250   27.5645    6.3247 N   0  0  0  0  0  0  0  0  0  0  0  0
   -5.4499   27.1014    7.2166 H   0  0  0  0  0  0  0  0  0  0  0  0
   -4.8536   32.1251    9.1166 C   0  0  0  0  0  0  0  0  0  0  0  0
   -6.2739   31.5679    9.0088 C   0  0  0  0  0  0  0  0  0  0  0  0
   -6.5419   30.8885    7.6536 C   0  0  0  0  0  0  0  0  0  0  0  0
   -6.5457   29.3539    7.7279 C   0  0  0  0  0  0  0  0  0  0  0  0
   -5.5559   28.8533    8.7748 C   0  0  0  0  0  0  0  0  0  0  0  0
   -5.8834   29.4261   10.1554 C   0  0  0  0  0  0  0  0  0  0  0  0
   -6.6055   30.7006   10.1425 N   0  0  0  0  0  0  0  0  0  0  0  0
   -7.6078   30.5062   10.1156 H   0  0  0  0  0  0  0  0  0  0  0  0
 21 22  1  0  0  0
 22 23  1  0  0  0
 23 24  1  0  0  0
 24 17  1  0  0  0
 17 18  2  0  0  0
 17 19  1  0  0  0
 19  1  1  0  0  0
  1  2  1  0  0  0
  2  3  2  0  0  0
  3  4  1  0  0  0
  4  5  1  0  0  0
  4  6  2  0  0  0
  6  7  1  0  0  0
  7  8  1  0  0  0
  8  9  2  0  0  0
  9 10  1  0  0  0
 10 11  2  0  0  0
 11 12  1  0  0  0
 12 13  2  0  0  0
 13 14  1  0  0  0
 14 15  2  0  0  0
 15 16  1  0  0  0
 24 25  1  0  0  0
 25 26  1  0  0  0
 26 27  1  0  0  0
 27 22  1  0  0  0
  7  1  2  0  0  0
 16  8  1  0  0  0
 15 10  1  0  0  0
 19 20  1  0  0  0
 27 28  1  0  0  0
M  END
> <minimizedAffinity>
-9.66411

$$$$
OCNT-2317145


 30 34  0  0  0  0  0  0  0  0999 V2000
   -4.2193   28.2654    6.9894 N   0  0  0  0  0  0  0  0  0  0  0  0
   -3.4567   27.5440    6.1039 C   0  0  0  0  0  0  0  0  0  0  0  0
   -2.2560   27.3534    6.2832 O   0  0  0  0  0  0  0  0  0  0  0  0
   -4.1441   27.0850    4.9926 N   0  0  0  0  0  0  0  0  0  0  0  0
   -3.3880   26.4502    3.9176 C   0  0  0  0  0  0  0  0  0  0  0  0
   -3.6773   24.9528    3.8576 C   0  0  0  0  0  0  0  0  0  0  0  0
   -5.1899   24.6782    3.7441 C   0  0  0  0  0  0  0  0  0  0  0  0
   -5.4275   23.1864    3.8671 C   0  0  0  0  0  0  0  0  0  0  0  0
   -5.9587   22.4378    2.8960 C   0  0  0  0  0  0  0  0  0  0  0  0
   -6.3381   23.0976    1.6582 C   0  0  0  0  0  0  0  0  0  0  0  0
   -6.8831   22.3698    0.5938 C   0  0  0  0  0  0  0  0  0  0  0  0
   -7.2638   23.0194   -0.5829 C   0  0  0  0  0  0  0  0  0  0  0  0
   -7.0957   24.3957   -0.7033 C   0  0  0  0  0  0  0  0  0  0  0  0
   -6.5453   25.1219    0.3529 C   0  0  0  0  0  0  0  0  0  0  0  0
   -6.1667   24.4747    1.5300 C   0  0  0  0  0  0  0  0  0  0  0  0
   -5.6441   25.2718    2.5065 O   0  0  0  0  0  0  0  0  0  0  0  0
   -5.9363   25.4073    4.8790 C   0  0  0  0  0  0  0  0  0  0  0  0
   -5.5931   26.8973    4.9069 C   0  0  0  0  0  0  0  0  0  0  0  0
   -4.9730   28.7769    6.5564 H   0  0  0  0  0  0  0  0  0  0  0  0
   -4.6591   29.1036    9.2307 C   0  0  0  0  0  0  0  0  0  0  0  0
   -3.6030   28.9397    8.1367 C   0  0  0  0  0  0  0  0  0  0  0  0
   -2.8833   30.2497    7.7164 C   0  0  0  0  0  0  0  0  0  0  0  0
   -1.6129   30.5338    8.5345 C   0  0  0  0  0  0  0  0  0  0  0  0
   -1.9330   31.4624    9.5999 O   0  0  0  0  0  0  0  0  0  0  0  0
   -3.0353   32.1231    9.1211 C   0  0  0  0  0  0  0  0  0  0  0  0
   -3.5390   33.2860    9.6605 C   0  0  0  0  0  0  0  0  0  0  0  0
   -4.6580   33.8564    9.0503 C   0  0  0  0  0  0  0  0  0  0  0  0
   -5.2480   33.2500    7.9298 C   0  0  0  0  0  0  0  0  0  0  0  0
   -4.7303   32.0617    7.4097 C   0  0  0  0  0  0  0  0  0  0  0  0
   -3.6237   31.5047    8.0278 C   0  0  0  0  0  0  0  0  0  0  0  0
 20 21  1  0  0  0
 21  1  1  0  0  0
  1  2  1  0  0  0
  2  3  2  0  0  0
  2  4  1  0  0  0
  4  5  1  0  0  0
  5  6  1  0  0  0
  6  7  1  0  0  0
  7  8  1  0  0  0
  8  9  2  0  0  0
  9 10  1  0  0  0
 10 11  2  0  0  0
 11 12  1  0  0  0
 12 13  2  0  0  0
 13 14  1  0  0  0
 14 15  2  0  0  0
 15 16  1  0  0  0
  7 17  1  0  0  0
 17 18  1  0  0  0
 21 22  1  0  0  0
 22 23  1  0  0  0
 23 24  1  0  0  0
 24 25  1  0  0  0
 25 26  2  0  0  0
 26 27  1  0  0  0
 27 28  2  0  0  0
 28 29  1  0  0  0
 29 30  2  0  0  0
 18  4  1  0  0  0
 30 22  1  0  0  0
 16  7  1  0  0  0
 30 25  1  0  0  0
 15 10  1  0  0  0
  1 19  1  0  0  0
M  END
> <minimizedAffinity>
-11.95548

$$$$
OCNT-2317158


 22 24  0  0  0  0  0  0  0  0999 V2000
   -5.6726   25.8677    3.4784 C   0  0  0  0  0  0  0  0  0  0  0  0
   -4.4935   25.7099    4.4538 C   0  0  0  0  0  0  0  0  0  0  0  0
   -4.1298   27.0227    5.1577 C   0  0  0  0  0  0  0  0  0  0  0  0
   -5.3416   27.7735    5.4867 N   0  0  0  0  0  0  0  0  0  0  0  0
   -6.0366   28.2352    4.2715 C   0  0  0  0  0  0  0  0  0  0  0  0
   -5.8323   27.3307    3.0505 C   0  0  0  0  0  0  0  0  0  0  0  0
   -4.3620   25.0414    1.4721 C   0  0  0  0  0  0  0  0  0  0  0  0
   -5.5731   24.9833    2.2893 N   0  0  0  0  0  0  0  0  0  0  0  0
   -6.0858   23.6818    2.4740 C   0  0  0  0  0  0  0  0  0  0  0  0
   -5.5665   22.6035    1.7584 C   0  0  0  0  0  0  0  0  0  0  0  0
   -6.0827   21.3212    1.9372 C   0  0  0  0  0  0  0  0  0  0  0  0
   -7.1160   21.1542    2.8302 C   0  0  0  0  0  0  0  0  0  0  0  0
   -7.6300   22.1857    3.5150 N   0  0  0  0  0  0  0  0  0  0  0  0
   -7.1128   23.4493    3.3226 N   0  0  0  0  0  0  0  0  0  0  0  0
   -5.1053   28.8986    6.4056 C   0  0  0  0  0  0  0  0  0  0  0  0
   -3.6115   29.1168    6.6838 C   0  0  0  0  0  0  0  0  0  0  0  0
   -3.2581   30.6070    6.6593 C   0  0  0  0  0  0  0  0  0  0  0  0
   -4.0349   31.2890    5.6469 O   0  0  0  0  0  0  0  0  0  0  0  0
   -3.2921   31.2885    8.0601 C   0  0  0  0  0  0  0  0  0  0  0  0
   -2.0178   32.0522    7.6564 C   0  0  0  0  0  0  0  0  0  0  0  0
   -1.7357   30.9323    6.6386 C   0  0  0  0  0  0  0  0  0  0  0  0
   -4.9612   31.1971    5.9322 H   0  0  0  0  0  0  0  0  0  0  0  0
  7  8  1  0  0  0
  8  9  1  0  0  0
  9 10  2  0  0  0
 10 11  1  0  0  0
 11 12  2  0  0  0
 12 13  1  0  0  0
 13 14  2  0  0  0
  8  1  1  0  0  0
  1  2  1  0  0  0
  2  3  1  0  0  0
  3  4  1  0  0  0
  4 15  1  0  0  0
 15 16  1  0  0  0
 16 17  1  0  0  0
 17 18  1  0  0  0
 17 19  1  0  0  0
 19 20  1  0  0  0
 20 21  1  0  0  0
  4  5  1  0  0  0
  5  6  1  0  0  0
 14  9  1  0  0  0
  6  1  1  0  0  0
 21 17  1  0  0  0
 18 22  1  0  0  0
M  END
> <minimizedAffinity>
-7.71942

$$$$
OCNT-2317163


 27 29  0  0  0  0  0  0  0  0999 V2000
   -4.5731   30.4348    7.7312 C   0  0  0  0  0  0  0  0  0  0  0  0
   -5.5322   30.2074    6.7483 C   0  0  0  0  0  0  0  0  0  0  0  0
   -5.3245   29.2039    5.7934 C   0  0  0  0  0  0  0  0  0  0  0  0
   -4.1549   28.4271    5.7744 C   0  0  0  0  0  0  0  0  0  0  0  0
   -3.2255   28.6573    6.8141 C   0  0  0  0  0  0  0  0  0  0  0  0
   -3.4097   29.6704    7.7692 C   0  0  0  0  0  0  0  0  0  0  0  0
   -5.0476   33.1757    7.9200 C   0  0  0  0  0  0  0  0  0  0  0  0
   -4.8116   31.7321    8.9231 S   0  0  0  0  0  0  0  0  0  0  0  0
   -3.5661   31.8937    9.6487 O   0  0  0  0  0  0  0  0  0  0  0  0
   -6.0508   31.4502    9.6192 O   0  0  0  0  0  0  0  0  0  0  0  0
   -1.7494   27.6615    6.9348 S   0  0  0  0  0  0  0  0  0  0  0  0
   -0.8571   28.3968    8.2811 C   0  0  0  0  0  0  0  0  0  0  0  0
   -0.9711   27.8735    5.7285 O   0  0  0  0  0  0  0  0  0  0  0  0
   -2.1615   26.3239    7.3256 O   0  0  0  0  0  0  0  0  0  0  0  0
   -3.9537   27.3933    4.8522 N   0  0  0  0  0  0  0  0  0  0  0  0
   -3.5288   27.7692    3.9905 H   0  0  0  0  0  0  0  0  0  0  0  0
   -4.9923   26.4035    4.5400 C   0  0  0  0  0  0  0  0  0  0  0  0
   -4.5429   24.9881    4.8916 C   0  0  0  0  0  0  0  0  0  0  0  0
   -5.4477   24.1089    4.0327 C   0  0  0  0  0  0  0  0  0  0  0  0
   -5.6691   24.8962    2.8252 N   0  0  0  0  0  0  0  0  0  0  0  0
   -5.2389   26.2817    3.0153 C   0  0  0  0  0  0  0  0  0  0  0  0
   -6.2522   24.4166    1.6772 C   0  0  0  0  0  0  0  0  0  0  0  0
   -6.2439   25.1492    0.4791 C   0  0  0  0  0  0  0  0  0  0  0  0
   -6.8363   24.6654   -0.6946 C   0  0  0  0  0  0  0  0  0  0  0  0
   -7.4577   23.4234   -0.7006 C   0  0  0  0  0  0  0  0  0  0  0  0
   -7.4829   22.6707    0.4663 C   0  0  0  0  0  0  0  0  0  0  0  0
   -6.8868   23.1646    1.6340 C   0  0  0  0  0  0  0  0  0  0  0  0
  7  8  1  0  0  0
  8  9  2  0  0  0
  8 10  2  0  0  0
  8  1  1  0  0  0
  1  2  1  0  0  0
  2  3  2  0  0  0
  3  4  1  0  0  0
  4 15  1  0  0  0
 15 17  1  0  0  0
 17 18  1  0  0  0
 18 19  1  0  0  0
 19 20  1  0  0  0
 20 22  1  0  0  0
 22 23  2  0  0  0
 23 24  1  0  0  0
 24 25  2  0  0  0
 25 26  1  0  0  0
 26 27  2  0  0  0
 20 21  1  0  0  0
  4  5  2  0  0  0
  5 11  1  0  0  0
 11 12  1  0  0  0
 11 13  2  0  0  0
 11 14  2  0  0  0
  5  6  1  0  0  0
  6  1  2  0  0  0
 21 17  1  0  0  0
 27 22  1  0  0  0
 15 16  1  0  0  0
M  END
> <minimizedAffinity>
-8.71063

$$$$
OCNT-2317169


 28 31  0  0  0  0  0  0  0  0999 V2000
   -5.7209   25.9379    1.7866 O   0  0  0  0  0  0  0  0  0  0  0  0
   -5.2052   25.0851    2.5049 C   0  0  0  0  0  0  0  0  0  0  0  0
   -4.8058   25.3545    3.7901 N   0  0  0  0  0  0  0  0  0  0  0  0
   -5.0028   23.7743    2.0985 N   0  0  0  0  0  0  0  0  0  0  0  0
   -5.7264   23.3206    0.9169 C   0  0  0  0  0  0  0  0  0  0  0  0
   -7.2323   23.1517    1.1633 C   0  0  0  0  0  0  0  0  0  0  0  0
   -7.6134   21.9919    2.0885 C   0  0  0  0  0  0  0  0  0  0  0  0
   -7.3589   22.2308    3.5636 C   0  0  0  0  0  0  0  0  0  0  0  0
   -8.4189   22.7023    4.3574 C   0  0  0  0  0  0  0  0  0  0  0  0
   -8.2508   22.9248    5.7244 C   0  0  0  0  0  0  0  0  0  0  0  0
   -7.0187   22.6848    6.3216 C   0  0  0  0  0  0  0  0  0  0  0  0
   -5.9513   22.2307    5.5505 C   0  0  0  0  0  0  0  0  0  0  0  0
   -6.1049   22.0027    4.1708 C   0  0  0  0  0  0  0  0  0  0  0  0
   -4.8946   21.5939    3.3649 C   0  0  0  0  0  0  0  0  0  0  0  0
   -4.1449   22.7998    2.7865 C   0  0  0  0  0  0  0  0  0  0  0  0
   -4.9758   24.5751    4.4100 H   0  0  0  0  0  0  0  0  0  0  0  0
   -5.0492   26.6637    4.3809 C   0  0  0  0  0  0  0  0  0  0  0  0
   -6.3245   26.6708    5.2293 C   0  0  0  0  0  0  0  0  0  0  0  0
   -6.4855   28.0165    5.9176 C   0  0  0  0  0  0  0  0  0  0  0  0
   -5.3338   28.3207    6.7041 O   0  0  0  0  0  0  0  0  0  0  0  0
   -4.1441   28.4283    5.9133 C   0  0  0  0  0  0  0  0  0  0  0  0
   -3.8506   27.0917    5.2272 C   0  0  0  0  0  0  0  0  0  0  0  0
   -2.9859   28.8467    6.7869 C   0  0  0  0  0  0  0  0  0  0  0  0
   -2.5760   30.1841    6.8423 C   0  0  0  0  0  0  0  0  0  0  0  0
   -1.4863   30.5448    7.6297 C   0  0  0  0  0  0  0  0  0  0  0  0
   -0.8298   29.5508    8.3364 C   0  0  0  0  0  0  0  0  0  0  0  0
   -1.1860   28.2501    8.3053 N   0  0  0  0  0  0  0  0  0  0  0  0
   -2.2544   27.9296    7.5367 C   0  0  0  0  0  0  0  0  0  0  0  0
  1  2  2  0  0  0
  2  3  1  0  0  0
  3 17  1  0  0  0
 17 18  1  0  0  0
 18 19  1  0  0  0
 19 20  1  0  0  0
 20 21  1  0  0  0
 21 23  1  0  0  0
 23 24  1  0  0  0
 24 25  2  0  0  0
 25 26  1  0  0  0
 26 27  2  0  0  0
 27 28  1  0  0  0
 21 22  1  0  0  0
  2  4  1  0  0  0
  4  5  1  0  0  0
  5  6  1  0  0  0
  6  7  1  0  0  0
  7  8  1  0  0  0
  8  9  2  0  0  0
  9 10  1  0  0  0
 10 11  2  0  0  0
 11 12  1  0  0  0
 12 13  2  0  0  0
 13 14  1  0  0  0
 14 15  1  0  0  0
 22 17  1  0  0  0
 15  4  1  0  0  0
 28 23  2  0  0  0
 13  8  1  0  0  0
  3 16  1  0  0  0
M  END
> <minimizedAffinity>
-10.46375

$$$$
OCNT-2317170


 27 30  0  0  0  0  0  0  0  0999 V2000
   -3.9930   25.5067    2.9257 C   0  0  0  0  0  0  0  0  0  0  0  0
   -4.2780   26.6831    2.7248 O   0  0  0  0  0  0  0  0  0  0  0  0
   -2.7961   25.1235    3.5003 N   0  0  0  0  0  0  0  0  0  0  0  0
   -2.5326   24.1546    3.4012 H   0  0  0  0  0  0  0  0  0  0  0  0
   -6.4527   21.1501    2.9931 C   0  0  0  0  0  0  0  0  0  0  0  0
   -5.9947   22.4567    2.5749 N   0  0  0  0  0  0  0  0  0  0  0  0
   -5.0685   23.2111    3.2466 C   0  0  0  0  0  0  0  0  0  0  0  0
   -4.8842   24.4028    2.5597 C   0  0  0  0  0  0  0  0  0  0  0  0
   -5.7613   24.3481    1.4211 C   0  0  0  0  0  0  0  0  0  0  0  0
   -6.0399   25.2350    0.3574 C   0  0  0  0  0  0  0  0  0  0  0  0
   -6.9637   24.8757   -0.6288 C   0  0  0  0  0  0  0  0  0  0  0  0
   -7.6133   23.6479   -0.5729 C   0  0  0  0  0  0  0  0  0  0  0  0
   -7.3609   22.7495    0.4668 C   0  0  0  0  0  0  0  0  0  0  0  0
   -6.4324   23.1215    1.4525 C   0  0  0  0  0  0  0  0  0  0  0  0
   -1.7463   26.0855    3.7683 C   0  0  0  0  0  0  0  0  0  0  0  0
   -1.4004   26.1458    5.2628 C   0  0  0  0  0  0  0  0  0  0  0  0
   -2.6499   26.3759    6.1318 C   0  0  0  0  0  0  0  0  0  0  0  0
   -2.8664   27.8532    6.4569 C   0  0  0  0  0  0  0  0  0  0  0  0
   -1.7077   28.3871    7.1815 N   0  0  0  0  0  0  0  0  0  0  0  0
   -0.3944   27.7885    6.9260 C   0  0  0  0  0  0  0  0  0  0  0  0
   -0.3368   27.2298    5.5058 C   0  0  0  0  0  0  0  0  0  0  0  0
   -1.8477   29.4500    8.0647 C   0  0  0  0  0  0  0  0  0  0  0  0
   -3.0897   29.8112    8.5992 C   0  0  0  0  0  0  0  0  0  0  0  0
   -3.1847   30.8843    9.4771 C   0  0  0  0  0  0  0  0  0  0  0  0
   -2.1360   31.6296    9.8719 N   0  0  0  0  0  0  0  0  0  0  0  0
   -0.9421   31.2796    9.3585 C   0  0  0  0  0  0  0  0  0  0  0  0
   -0.7562   30.2258    8.4718 C   0  0  0  0  0  0  0  0  0  0  0  0
  5  6  1  0  0  0
  6  7  1  0  0  0
  7  8  2  0  0  0
  8  1  1  0  0  0
  1  2  2  0  0  0
  1  3  1  0  0  0
  3 15  1  0  0  0
 15 16  1  0  0  0
 16 17  1  0  0  0
 17 18  1  0  0  0
 18 19  1  0  0  0
 19 22  1  0  0  0
 22 23  2  0  0  0
 23 24  1  0  0  0
 24 25  2  0  0  0
 25 26  1  0  0  0
 26 27  2  0  0  0
 19 20  1  0  0  0
 20 21  1  0  0  0
  8  9  1  0  0  0
  9 10  2  0  0  0
 10 11  1  0  0  0
 11 12  2  0  0  0
 12 13  1  0  0  0
 13 14  2  0  0  0
 14  6  1  0  0  0
 21 16  1  0  0  0
 14  9  1  0  0  0
 27 22  1  0  0  0
  3  4  1  0  0  0
M  END
> <minimizedAffinity>
-10.37518

$$$$
OCNT-2317172


 26 28  0  0  0  0  0  0  0  0999 V2000
   -2.4344   30.5481    7.4228 C   0  0  0  0  0  0  0  0  0  0  0  0
   -2.7179   32.0297    7.1575 C   0  0  0  0  0  0  0  0  0  0  0  0
   -3.0371   32.8114    8.4346 C   0  0  0  0  0  0  0  0  0  0  0  0
   -2.4463   32.1824    9.6954 C   0  0  0  0  0  0  0  0  0  0  0  0
   -1.1564   31.4244    9.4133 C   0  0  0  0  0  0  0  0  0  0  0  0
   -1.3057   30.3998    8.3773 N   0  0  0  0  0  0  0  0  0  0  0  0
   -0.2871   29.4511    8.2680 C   0  0  0  0  0  0  0  0  0  0  0  0
    0.5949   29.3111    9.1095 O   0  0  0  0  0  0  0  0  0  0  0  0
   -0.2689   28.5564    7.0975 C   0  0  0  0  0  0  0  0  0  0  0  0
   -1.0458   27.3962    7.1014 C   0  0  0  0  0  0  0  0  0  0  0  0
   -1.0223   26.5552    5.9893 C   0  0  0  0  0  0  0  0  0  0  0  0
   -0.2159   26.8682    4.8926 C   0  0  0  0  0  0  0  0  0  0  0  0
    0.5765   28.0179    4.9049 C   0  0  0  0  0  0  0  0  0  0  0  0
    0.5570   28.8650    6.0121 C   0  0  0  0  0  0  0  0  0  0  0  0
   -3.6830   28.9372    8.7589 O   0  0  0  0  0  0  0  0  0  0  0  0
   -3.7112   29.8072    7.8910 C   0  0  0  0  0  0  0  0  0  0  0  0
   -4.8666   30.2858    7.3078 N   0  0  0  0  0  0  0  0  0  0  0  0
   -4.8097   30.7310    6.3972 H   0  0  0  0  0  0  0  0  0  0  0  0
   -6.0446   29.5760    7.6414 O   0  0  0  0  0  0  0  0  0  0  0  0
   -6.9920   29.6725    6.5742 C   0  0  0  0  0  0  0  0  0  0  0  0
   -6.5252   28.8629    5.3994 C   0  0  0  0  0  0  0  0  0  0  0  0
   -6.2839   29.4395    4.1485 C   0  0  0  0  0  0  0  0  0  0  0  0
   -5.8905   28.6387    3.0805 C   0  0  0  0  0  0  0  0  0  0  0  0
   -5.7641   27.2769    3.2946 C   0  0  0  0  0  0  0  0  0  0  0  0
   -6.0041   26.6784    4.4809 N   0  0  0  0  0  0  0  0  0  0  0  0
   -6.3791   27.4830    5.5014 C   0  0  0  0  0  0  0  0  0  0  0  0
 15 16  2  0  0  0
 16 17  1  0  0  0
 17 19  1  0  0  0
 19 20  1  0  0  0
 20 21  1  0  0  0
 21 22  1  0  0  0
 22 23  2  0  0  0
 23 24  1  0  0  0
 24 25  2  0  0  0
 25 26  1  0  0  0
 16  1  1  0  0  0
  1  2  1  0  0  0
  2  3  1  0  0  0
  3  4  1  0  0  0
  4  5  1  0  0  0
  5  6  1  0  0  0
  6  7  1  0  0  0
  7  8  2  0  0  0
  7  9  1  0  0  0
  9 10  2  0  0  0
 10 11  1  0  0  0
 11 12  2  0  0  0
 12 13  1  0  0  0
 13 14  2  0  0  0
 26 21  2  0  0  0
  6  1  1  0  0  0
 14  9  1  0  0  0
 17 18  1  0  0  0
M  END
> <minimizedAffinity>
-8.96570

$$$$
OCNT-2317174


 25 26  0  0  0  0  0  0  0  0999 V2000
   -4.7543   27.4825    5.9420 N   0  0  0  0  0  0  0  0  0  0  0  0
   -4.2624   28.7399    6.1554 C   0  0  0  0  0  0  0  0  0  0  0  0
   -4.8910   29.7456    5.8195 O   0  0  0  0  0  0  0  0  0  0  0  0
   -3.0085   28.8047    6.7433 N   0  0  0  0  0  0  0  0  0  0  0  0
   -2.2338   27.6458    7.2125 C   0  0  0  0  0  0  0  0  0  0  0  0
   -0.7276   27.8911    7.1950 C   0  0  0  0  0  0  0  0  0  0  0  0
   -0.3954   29.0861    7.9065 O   0  0  0  0  0  0  0  0  0  0  0  0
   -0.9793   30.2210    7.2611 C   0  0  0  0  0  0  0  0  0  0  0  0
   -2.5152   30.1389    7.1487 C   0  0  0  0  0  0  0  0  0  0  0  0
   -4.4134   26.7418    6.5211 H   0  0  0  0  0  0  0  0  0  0  0  0
   -6.0739   27.2823    5.3864 C   0  0  0  0  0  0  0  0  0  0  0  0
   -6.0644   24.0488    2.4972 C   0  0  0  0  0  0  0  0  0  0  0  0
   -6.3381   23.7896    3.8413 C   0  0  0  0  0  0  0  0  0  0  0  0
   -6.3350   24.8305    4.7833 C   0  0  0  0  0  0  0  0  0  0  0  0
   -6.0646   26.1458    4.3954 C   0  0  0  0  0  0  0  0  0  0  0  0
   -5.7762   26.4005    3.0493 C   0  0  0  0  0  0  0  0  0  0  0  0
   -5.7802   25.3626    2.1206 C   0  0  0  0  0  0  0  0  0  0  0  0
   -5.5100   25.6544    0.8355 F   0  0  0  0  0  0  0  0  0  0  0  0
   -6.0511   23.1336    1.4823 O   0  0  0  0  0  0  0  0  0  0  0  0
   -7.6701   23.3142   -0.3266 C   0  0  0  0  0  0  0  0  0  0  0  0
   -7.2908   22.6281    0.9784 C   0  0  0  0  0  0  0  0  0  0  0  0
   -3.2751   30.7530    8.3558 C   0  0  0  0  0  0  0  0  0  0  0  0
   -2.8584   32.1329    8.9102 C   0  0  0  0  0  0  0  0  0  0  0  0
   -4.0254   33.1023    9.0821 C   0  0  0  0  0  0  0  0  0  0  0  0
   -2.1793   31.9326   10.2782 C   0  0  0  0  0  0  0  0  0  0  0  0
 20 21  1  0  0  0
 21 19  1  0  0  0
 19 12  1  0  0  0
 12 13  1  0  0  0
 13 14  2  0  0  0
 14 15  1  0  0  0
 15 11  1  0  0  0
 11  1  1  0  0  0
  1  2  1  0  0  0
  2  3  2  0  0  0
  2  4  1  0  0  0
  4  5  1  0  0  0
  5  6  1  0  0  0
  6  7  1  0  0  0
  7  8  1  0  0  0
  8  9  1  0  0  0
  9 22  1  0  0  0
 22 23  1  0  0  0
 23 24  1  0  0  0
 23 25  1  0  0  0
 15 16  2  0  0  0
 16 17  1  0  0  0
 17 18  1  0  0  0
 17 12  2  0  0  0
  9  4  1  0  0  0
  1 10  1  0  0  0
M  END
> <minimizedAffinity>
-8.88600

$$$$
OCNT-2317181


 29 31  0  0  0  0  0  0  0  0999 V2000
   -4.3563   29.0883    6.7415 N   0  0  0  0  0  0  0  0  0  0  0  0
   -5.0255   30.0856    5.8972 C   0  0  0  0  0  0  0  0  0  0  0  0
   -6.3287   29.5149    5.2859 C   0  0  0  0  0  0  0  0  0  0  0  0
   -6.2199   28.1859    4.6236 N   0  0  0  0  0  0  0  0  0  0  0  0
   -5.5591   27.2597    5.5760 C   0  0  0  0  0  0  0  0  0  0  0  0
   -4.2146   27.7479    6.1629 C   0  0  0  0  0  0  0  0  0  0  0  0
   -2.3973   31.9576   10.0402 C   0  0  0  0  0  0  0  0  0  0  0  0
   -2.2182   30.9421    8.9526 C   0  0  0  0  0  0  0  0  0  0  0  0
   -0.9593   30.5295    8.5844 C   0  0  0  0  0  0  0  0  0  0  0  0
   -0.8944   29.5950    7.5697 C   0  0  0  0  0  0  0  0  0  0  0  0
   -2.0124   29.1108    6.9710 N   0  0  0  0  0  0  0  0  0  0  0  0
   -3.2083   29.5593    7.3784 C   0  0  0  0  0  0  0  0  0  0  0  0
   -3.3313   30.4672    8.3601 N   0  0  0  0  0  0  0  0  0  0  0  0
    0.4662   29.0995    7.1153 C   0  0  0  0  0  0  0  0  0  0  0  0
    0.5075   27.7762    6.7921 F   0  0  0  0  0  0  0  0  0  0  0  0
    1.4272   29.2791    8.0692 F   0  0  0  0  0  0  0  0  0  0  0  0
    0.9210   29.7666    6.0138 F   0  0  0  0  0  0  0  0  0  0  0  0
   -5.4501   28.2689    3.3540 C   0  0  0  0  0  0  0  0  0  0  0  0
   -4.9408   26.8851    2.9167 C   0  0  0  0  0  0  0  0  0  0  0  0
   -3.7393   26.6392    2.8774 O   0  0  0  0  0  0  0  0  0  0  0  0
   -5.9764   26.0075    2.6508 N   0  0  0  0  0  0  0  0  0  0  0  0
   -6.8942   26.4472    2.6912 H   0  0  0  0  0  0  0  0  0  0  0  0
   -5.9058   24.6601    2.2638 C   0  0  0  0  0  0  0  0  0  0  0  0
   -5.4495   23.6351    3.0973 C   0  0  0  0  0  0  0  0  0  0  0  0
   -5.4109   22.3152    2.6368 C   0  0  0  0  0  0  0  0  0  0  0  0
   -5.8294   22.0240    1.3454 C   0  0  0  0  0  0  0  0  0  0  0  0
   -5.7922   20.7594    0.9064 F   0  0  0  0  0  0  0  0  0  0  0  0
   -6.2878   23.0281    0.5033 C   0  0  0  0  0  0  0  0  0  0  0  0
   -6.3264   24.3465    0.9632 C   0  0  0  0  0  0  0  0  0  0  0  0
  7  8  1  0  0  0
  8  9  2  0  0  0
  9 10  1  0  0  0
 10 14  1  0  0  0
 14 15  1  0  0  0
 14 16  1  0  0  0
 14 17  1  0  0  0
 10 11  2  0  0  0
 11 12  1  0  0  0
 12  1  1  0  0  0
  1  2  1  0  0  0
  2  3  1  0  0  0
  3  4  1  0  0  0
  4 18  1  0  0  0
 18 19  1  0  0  0
 19 20  2  0  0  0
 19 21  1  0  0  0
 21 23  1  0  0  0
 23 24  1  0  0  0
 24 25  2  0  0  0
 25 26  1  0  0  0
 26 27  1  0  0  0
 26 28  2  0  0  0
 28 29  1  0  0  0
  4  5  1  0  0  0
  5  6  1  0  0  0
 12 13  2  0  0  0
 13  8  1  0  0  0
  6  1  1  0  0  0
 29 23  2  0  0  0
 21 22  1  0  0  0
M  END
> <minimizedAffinity>
-10.02529

$$$$
OCNT-2317186


 27 28  0  0  0  0  0  0  0  0999 V2000
   -5.3301   29.9384    4.7343 N   0  0  0  0  0  0  0  0  0  0  0  0
   -5.0153   30.1655    6.0499 C   0  0  0  0  0  0  0  0  0  0  0  0
   -5.2320   29.3719    6.9530 O   0  0  0  0  0  0  0  0  0  0  0  0
   -4.4219   31.3936    6.1997 N   0  0  0  0  0  0  0  0  0  0  0  0
   -5.6038   30.7681    4.2235 H   0  0  0  0  0  0  0  0  0  0  0  0
   -3.9503   31.7141    5.3658 H   0  0  0  0  0  0  0  0  0  0  0  0
   -3.8967   31.8851    7.4731 C   0  0  0  0  0  0  0  0  0  0  0  0
   -4.7384   33.0590    7.9832 C   0  0  0  0  0  0  0  0  0  0  0  0
   -2.3698   32.1997    7.4138 C   0  0  0  0  0  0  0  0  0  0  0  0
   -1.6065   31.2548    6.4576 C   0  0  0  0  0  0  0  0  0  0  0  0
   -1.4922   29.8303    6.9981 C   0  0  0  0  0  0  0  0  0  0  0  0
   -0.8810   29.8092    8.3889 C   0  0  0  0  0  0  0  0  0  0  0  0
    0.4315   30.1499    8.3033 F   0  0  0  0  0  0  0  0  0  0  0  0
   -0.9179   28.5446    8.8786 F   0  0  0  0  0  0  0  0  0  0  0  0
   -1.5747   30.7477    9.3627 C   0  0  0  0  0  0  0  0  0  0  0  0
   -1.6820   32.1617    8.7948 C   0  0  0  0  0  0  0  0  0  0  0  0
   -6.0867   28.7508    4.3699 C   0  0  0  0  0  0  0  0  0  0  0  0
   -3.4464   25.9871    3.7716 N   0  0  0  0  0  0  0  0  0  0  0  0
   -4.0245   25.6536    2.4527 C   0  0  0  0  0  0  0  0  0  0  0  0
   -5.5583   25.6456    2.4959 C   0  0  0  0  0  0  0  0  0  0  0  0
   -6.1152   26.9355    2.7873 O   0  0  0  0  0  0  0  0  0  0  0  0
   -5.2262   27.7755    3.5585 C   0  0  0  0  0  0  0  0  0  0  0  0
   -4.3010   26.9602    4.4887 C   0  0  0  0  0  0  0  0  0  0  0  0
   -2.0497   26.4229    3.6326 C   0  0  0  0  0  0  0  0  0  0  0  0
    0.3400   25.6499    4.0683 C   0  0  0  0  0  0  0  0  0  0  0  0
   -1.0853   25.7302    4.6215 C   0  0  0  0  0  0  0  0  0  0  0  0
   -1.0831   26.4831    5.9547 C   0  0  0  0  0  0  0  0  0  0  0  0
 25 26  1  0  0  0
 26 27  1  0  0  0
 26 24  1  0  0  0
 24 18  1  0  0  0
 18 19  1  0  0  0
 19 20  1  0  0  0
 20 21  1  0  0  0
 21 22  1  0  0  0
 22 17  1  0  0  0
 17  1  1  0  0  0
  1  2  1  0  0  0
  2  3  2  0  0  0
  2  4  1  0  0  0
  4  7  1  0  0  0
  7  8  1  0  0  0
  7  9  1  0  0  0
  9 10  1  0  0  0
 10 11  1  0  0  0
 11 12  1  0  0  0
 12 13  1  0  0  0
 12 14  1  0  0  0
 12 15  1  0  0  0
 15 16  1  0  0  0
 22 23  1  0  0  0
 23 18  1  0  0  0
 16  9  1  0  0  0
  1  5  1  0  0  0
  4  6  1  0  0  0
M  END
> <minimizedAffinity>
-9.21150

$$$$
OCNT-2317192


 27 29  0  0  0  0  0  0  0  0999 V2000
   -3.7794   29.0519    7.0604 N   0  0  0  0  0  0  0  0  0  0  0  0
   -4.6517   29.1031    5.9997 C   0  0  0  0  0  0  0  0  0  0  0  0
   -5.3645   30.0737    5.7477 O   0  0  0  0  0  0  0  0  0  0  0  0
   -4.6862   27.9472    5.2078 N   0  0  0  0  0  0  0  0  0  0  0  0
   -3.9057   26.7331    5.4734 C   0  0  0  0  0  0  0  0  0  0  0  0
   -3.6005   25.9324    4.2121 C   0  0  0  0  0  0  0  0  0  0  0  0
   -4.8819   25.6712    3.4216 C   0  0  0  0  0  0  0  0  0  0  0  0
   -5.5402   27.0029    3.0535 C   0  0  0  0  0  0  0  0  0  0  0  0
   -5.8418   27.8037    4.3155 C   0  0  0  0  0  0  0  0  0  0  0  0
   -3.5206   28.1407    7.4130 H   0  0  0  0  0  0  0  0  0  0  0  0
   -2.2132   30.0069    8.6385 C   0  0  0  0  0  0  0  0  0  0  0  0
   -1.7533   30.9387    9.5036 N   0  0  0  0  0  0  0  0  0  0  0  0
   -2.5328   32.0295    9.6775 C   0  0  0  0  0  0  0  0  0  0  0  0
   -3.7385   32.2449    9.0170 C   0  0  0  0  0  0  0  0  0  0  0  0
   -4.5633   33.4658    9.2821 C   0  0  0  0  0  0  0  0  0  0  0  0
   -4.1873   31.2529    8.1376 C   0  0  0  0  0  0  0  0  0  0  0  0
   -3.4245   30.1036    7.9379 C   0  0  0  0  0  0  0  0  0  0  0  0
   -0.0613   29.0889    8.4471 C   0  0  0  0  0  0  0  0  0  0  0  0
   -1.4665   28.8536    8.4210 O   0  0  0  0  0  0  0  0  0  0  0  0
   -4.6342   24.7581    2.2740 N   0  0  0  0  0  0  0  0  0  0  0  0
   -3.7670   23.6134    2.5721 C   0  0  0  0  0  0  0  0  0  0  0  0
   -5.6937   24.4999    1.3941 C   0  0  0  0  0  0  0  0  0  0  0  0
   -5.9002   25.2359    0.2159 C   0  0  0  0  0  0  0  0  0  0  0  0
   -6.9699   24.9542   -0.6423 C   0  0  0  0  0  0  0  0  0  0  0  0
   -7.8507   23.9173   -0.3420 C   0  0  0  0  0  0  0  0  0  0  0  0
   -7.6665   23.1726    0.8207 C   0  0  0  0  0  0  0  0  0  0  0  0
   -6.6021   23.4688    1.6779 C   0  0  0  0  0  0  0  0  0  0  0  0
 18 19  1  0  0  0
 19 11  1  0  0  0
 11 12  1  0  0  0
 12 13  2  0  0  0
 13 14  1  0  0  0
 14 15  1  0  0  0
 14 16  2  0  0  0
 16 17  1  0  0  0
 17  1  1  0  0  0
  1  2  1  0  0  0
  2  3  2  0  0  0
  2  4  1  0  0  0
  4  5  1  0  0  0
  5  6  1  0  0  0
  6  7  1  0  0  0
  7 20  1  0  0  0
 20 21  1  0  0  0
 20 22  1  0  0  0
 22 23  2  0  0  0
 23 24  1  0  0  0
 24 25  2  0  0  0
 25 26  1  0  0  0
 26 27  2  0  0  0
  7  8  1  0  0  0
  8  9  1  0  0  0
 17 11  2  0  0  0
  9  4  1  0  0  0
 27 22  1  0  0  0
  1 10  1  0  0  0
M  END
> <minimizedAffinity>
-10.12130

$$$$
OCNT-2317197


 28 30  0  0  0  0  0  0  0  0999 V2000
   -5.4822   24.7230    3.5131 N   0  0  0  0  0  0  0  0  0  0  0  0
   -5.8045   26.0432    2.9583 C   0  0  0  0  0  0  0  0  0  0  0  0
   -4.4527   26.7112    2.7029 C   0  0  0  0  0  0  0  0  0  0  0  0
   -3.5107   26.0201    3.6783 C   0  0  0  0  0  0  0  0  0  0  0  0
   -4.0251   24.5682    3.6435 C   0  0  0  0  0  0  0  0  0  0  0  0
   -6.5858   22.8633    2.2903 C   0  0  0  0  0  0  0  0  0  0  0  0
   -7.5285   21.8195    2.2738 C   0  0  0  0  0  0  0  0  0  0  0  0
   -8.2470   21.5008    3.4194 C   0  0  0  0  0  0  0  0  0  0  0  0
   -8.0275   22.2353    4.5740 C   0  0  0  0  0  0  0  0  0  0  0  0
   -8.9006   21.8501    6.0083 Cl  0  0  0  0  0  0  0  0  0  0  0  0
   -7.1105   23.2918    4.5837 C   0  0  0  0  0  0  0  0  0  0  0  0
   -6.3733   23.6625    3.4396 C   0  0  0  0  0  0  0  0  0  0  0  0
   -6.8163   23.7106    0.1477 C   0  0  0  0  0  0  0  0  0  0  0  0
   -5.9307   23.1397    1.1116 O   0  0  0  0  0  0  0  0  0  0  0  0
   -3.6074   26.6157    5.0115 N   0  0  0  0  0  0  0  0  0  0  0  0
   -2.4544   26.9050    5.6994 C   0  0  0  0  0  0  0  0  0  0  0  0
   -1.3258   26.7785    5.2476 O   0  0  0  0  0  0  0  0  0  0  0  0
   -2.7446   27.3530    6.9634 N   0  0  0  0  0  0  0  0  0  0  0  0
   -4.3135   26.2043    5.6075 H   0  0  0  0  0  0  0  0  0  0  0  0
   -3.6001   27.8897    6.9955 H   0  0  0  0  0  0  0  0  0  0  0  0
   -1.6652   27.8240    7.8010 C   0  0  0  0  0  0  0  0  0  0  0  0
   -1.7366   29.3063    7.9246 C   0  0  0  0  0  0  0  0  0  0  0  0
   -0.5852   30.1479    8.4881 C   0  0  0  0  0  0  0  0  0  0  0  0
    0.6942   29.4828    8.9191 C   0  0  0  0  0  0  0  0  0  0  0  0
   -0.9532   31.3593    9.3025 C   0  0  0  0  0  0  0  0  0  0  0  0
   -0.9145   30.1630    7.0326 C   0  0  0  0  0  0  0  0  0  0  0  0
   -1.4785   31.2711    6.4437 F   0  0  0  0  0  0  0  0  0  0  0  0
   -0.0718   29.5960    6.1047 F   0  0  0  0  0  0  0  0  0  0  0  0
 13 14  1  0  0  0
 14  6  1  0  0  0
  6  7  1  0  0  0
  7  8  2  0  0  0
  8  9  1  0  0  0
  9 10  1  0  0  0
  9 11  2  0  0  0
 11 12  1  0  0  0
 12  1  1  0  0  0
  1  2  1  0  0  0
  2  3  1  0  0  0
  3  4  1  0  0  0
  4 15  1  0  0  0
 15 16  1  0  0  0
 16 17  2  0  0  0
 16 18  1  0  0  0
 18 21  1  0  0  0
 21 22  1  0  0  0
 22 23  1  0  0  0
 23 24  1  0  0  0
 23 25  1  0  0  0
 23 26  1  0  0  0
 26 27  1  0  0  0
 26 28  1  0  0  0
  4  5  1  0  0  0
 12  6  2  0  0  0
  5  1  1  0  0  0
 26 22  1  0  0  0
 15 19  1  0  0  0
 18 20  1  0  0  0
M  END
> <minimizedAffinity>
-9.12653

$$$$
OCNT-2317199


 30 33  0  0  0  0  0  0  0  0999 V2000
   -3.4471   25.2766    5.8029 N   0  0  0  0  0  0  0  0  0  0  0  0
   -4.6350   25.4922    5.1551 C   0  0  0  0  0  0  0  0  0  0  0  0
   -4.9188   26.4136    4.4020 O   0  0  0  0  0  0  0  0  0  0  0  0
   -5.5344   24.4812    5.4368 N   0  0  0  0  0  0  0  0  0  0  0  0
   -3.2733   24.3688    6.2018 H   0  0  0  0  0  0  0  0  0  0  0  0
   -5.4478   24.0694    6.3539 H   0  0  0  0  0  0  0  0  0  0  0  0
    0.7225   26.9195    4.1189 C   0  0  0  0  0  0  0  0  0  0  0  0
   -0.4085   26.8874    5.0831 C   0  0  0  0  0  0  0  0  0  0  0  0
   -0.5643   27.6691    6.2180 C   0  0  0  0  0  0  0  0  0  0  0  0
   -2.0319   27.2436    7.0027 S   0  0  0  0  0  0  0  0  0  0  0  0
   -2.3428   26.0867    5.7982 C   0  0  0  0  0  0  0  0  0  0  0  0
   -1.4320   25.9776    4.8609 N   0  0  0  0  0  0  0  0  0  0  0  0
    0.3123   28.7491    6.7762 C   0  0  0  0  0  0  0  0  0  0  0  0
   -0.4635   29.8984    7.3855 C   0  0  0  0  0  0  0  0  0  0  0  0
   -0.3576   30.1823    8.7579 C   0  0  0  0  0  0  0  0  0  0  0  0
   -1.0732   31.2410    9.3181 C   0  0  0  0  0  0  0  0  0  0  0  0
   -1.8981   32.0139    8.5106 C   0  0  0  0  0  0  0  0  0  0  0  0
   -2.5850   33.0298    9.0490 F   0  0  0  0  0  0  0  0  0  0  0  0
   -2.0224   31.7480    7.1526 C   0  0  0  0  0  0  0  0  0  0  0  0
   -1.3077   30.6898    6.5889 C   0  0  0  0  0  0  0  0  0  0  0  0
   -6.8813   24.5779    4.9289 C   0  0  0  0  0  0  0  0  0  0  0  0
   -7.2436   23.2596    4.3630 C   0  0  0  0  0  0  0  0  0  0  0  0
   -7.1368   22.7456    3.0903 C   0  0  0  0  0  0  0  0  0  0  0  0
   -7.6155   21.4311    3.1596 C   0  0  0  0  0  0  0  0  0  0  0  0
   -8.0241   21.1185    4.3910 N   0  0  0  0  0  0  0  0  0  0  0  0
   -7.7842   22.2372    5.1068 N   0  0  0  0  0  0  0  0  0  0  0  0
   -8.1043   22.2535    6.5162 C   0  0  0  0  0  0  0  0  0  0  0  0
   -6.5593   23.4482    1.8474 C   0  0  0  0  0  0  0  0  0  0  0  0
   -5.9809   22.6210    0.7290 C   0  0  0  0  0  0  0  0  0  0  0  0
   -5.0718   23.4258    1.6093 C   0  0  0  0  0  0  0  0  0  0  0  0
  7  8  1  0  0  0
  8  9  2  0  0  0
  9 13  1  0  0  0
 13 14  1  0  0  0
 14 15  1  0  0  0
 15 16  2  0  0  0
 16 17  1  0  0  0
 17 18  1  0  0  0
 17 19  2  0  0  0
 19 20  1  0  0  0
  9 10  1  0  0  0
 10 11  1  0  0  0
 11  1  1  0  0  0
  1  2  1  0  0  0
  2  3  2  0  0  0
  2  4  1  0  0  0
  4 21  1  0  0  0
 21 22  1  0  0  0
 22 23  2  0  0  0
 23 28  1  0  0  0
 28 29  1  0  0  0
 29 30  1  0  0  0
 23 24  1  0  0  0
 24 25  2  0  0  0
 25 26  1  0  0  0
 26 27  1  0  0  0
 11 12  2  0  0  0
 12  8  1  0  0  0
 20 14  2  0  0  0
 26 22  1  0  0  0
 30 28  1  0  0  0
  1  5  1  0  0  0
  4  6  1  0  0  0
M  END
> <minimizedAffinity>
-9.60101

$$$$
OCNT-2317204


 28 31  0  0  0  0  0  0  0  0999 V2000
    0.1992   30.3112    9.0473 C   0  0  0  0  0  0  0  0  0  0  0  0
   -0.8239   29.6229    8.2893 N   0  0  0  0  0  0  0  0  0  0  0  0
   -0.8431   28.2571    8.2125 C   0  0  0  0  0  0  0  0  0  0  0  0
   -1.7130   27.5644    7.5576 N   0  0  0  0  0  0  0  0  0  0  0  0
   -2.6953   28.2569    6.8882 C   0  0  0  0  0  0  0  0  0  0  0  0
   -2.7878   29.5970    6.8855 C   0  0  0  0  0  0  0  0  0  0  0  0
   -3.8681   30.3453    6.1716 C   0  0  0  0  0  0  0  0  0  0  0  0
   -5.0408   29.4371    5.8163 C   0  0  0  0  0  0  0  0  0  0  0  0
   -4.5889   28.1606    5.2687 N   0  0  0  0  0  0  0  0  0  0  0  0
   -5.4580   27.5251    4.3889 C   0  0  0  0  0  0  0  0  0  0  0  0
   -6.5364   28.0016    4.0473 O   0  0  0  0  0  0  0  0  0  0  0  0
   -5.0206   26.3107    3.9286 N   0  0  0  0  0  0  0  0  0  0  0  0
   -3.6774   27.3897    6.1234 C   0  0  0  0  0  0  0  0  0  0  0  0
   -1.7773   30.3740    7.6366 C   0  0  0  0  0  0  0  0  0  0  0  0
   -1.8152   31.6014    7.6550 O   0  0  0  0  0  0  0  0  0  0  0  0
   -4.0234   26.2422    3.7970 H   0  0  0  0  0  0  0  0  0  0  0  0
   -5.8169   25.5406    2.9816 C   0  0  0  0  0  0  0  0  0  0  0  0
   -5.3266   25.8035    1.5469 C   0  0  0  0  0  0  0  0  0  0  0  0
   -5.9383   24.8095    0.5701 C   0  0  0  0  0  0  0  0  0  0  0  0
   -5.4869   23.3928    0.9105 C   0  0  0  0  0  0  0  0  0  0  0  0
   -5.6614   23.0611    2.3703 C   0  0  0  0  0  0  0  0  0  0  0  0
   -5.6520   21.7159    2.7645 C   0  0  0  0  0  0  0  0  0  0  0  0
   -5.4951   20.7560    1.8413 F   0  0  0  0  0  0  0  0  0  0  0  0
   -5.8045   21.3411    4.0930 C   0  0  0  0  0  0  0  0  0  0  0  0
   -5.9710   22.3274    5.0547 C   0  0  0  0  0  0  0  0  0  0  0  0
   -6.1758   21.8865    6.7050 Cl  0  0  0  0  0  0  0  0  0  0  0  0
   -5.9717   23.6754    4.6933 C   0  0  0  0  0  0  0  0  0  0  0  0
   -5.7920   24.0640    3.3508 C   0  0  0  0  0  0  0  0  0  0  0  0
  1  2  1  0  0  0
  2  3  1  0  0  0
  3  4  2  0  0  0
  4  5  1  0  0  0
  5  6  2  0  0  0
  6  7  1  0  0  0
  7  8  1  0  0  0
  8  9  1  0  0  0
  9 10  1  0  0  0
 10 11  2  0  0  0
 10 12  1  0  0  0
 12 17  1  0  0  0
 17 18  1  0  0  0
 18 19  1  0  0  0
 19 20  1  0  0  0
 20 21  1  0  0  0
 21 22  1  0  0  0
 22 23  1  0  0  0
 22 24  2  0  0  0
 24 25  1  0  0  0
 25 26  1  0  0  0
 25 27  2  0  0  0
 27 28  1  0  0  0
  9 13  1  0  0  0
  6 14  1  0  0  0
 14 15  2  0  0  0
 14  2  1  0  0  0
 13  5  1  0  0  0
 28 17  1  0  0  0
 28 21  2  0  0  0
 12 16  1  0  0  0
M  END
> <minimizedAffinity>
-9.91396

$$$$
OCNT-2317216


 22 24  0  0  0  0  0  0  0  0999 V2000
   -3.5847   28.8309    8.6581 O   0  0  0  0  0  0  0  0  0  0  0  0
   -2.8700   28.7322    7.6621 C   0  0  0  0  0  0  0  0  0  0  0  0
   -1.5498   29.1372    7.6546 N   0  0  0  0  0  0  0  0  0  0  0  0
   -0.5793   28.8227    6.6122 C   0  0  0  0  0  0  0  0  0  0  0  0
    0.7432   29.3712    7.1244 C   0  0  0  0  0  0  0  0  0  0  0  0
    0.5754   29.2989    8.6374 C   0  0  0  0  0  0  0  0  0  0  0  0
   -0.8969   29.6798    8.8491 C   0  0  0  0  0  0  0  0  0  0  0  0
   -3.3925   28.1420    6.3707 C   0  0  0  0  0  0  0  0  0  0  0  0
   -4.9124   28.2222    6.3202 C   0  0  0  0  0  0  0  0  0  0  0  0
   -5.3940   28.4876    4.9827 N   0  0  0  0  0  0  0  0  0  0  0  0
   -5.4868   27.6225    3.9349 C   0  0  0  0  0  0  0  0  0  0  0  0
   -5.9900   28.3967    2.9178 C   0  0  0  0  0  0  0  0  0  0  0  0
   -6.1774   29.6734    3.3660 N   0  0  0  0  0  0  0  0  0  0  0  0
   -5.8108   29.7187    4.6401 N   0  0  0  0  0  0  0  0  0  0  0  0
   -1.0551   31.2076    8.9719 C   0  0  0  0  0  0  0  0  0  0  0  0
   -2.1767   31.6372    9.9214 C   0  0  0  0  0  0  0  0  0  0  0  0
   -3.2210   32.4567    9.2004 C   0  0  0  0  0  0  0  0  0  0  0  0
   -3.4864   32.2327    7.8427 C   0  0  0  0  0  0  0  0  0  0  0  0
   -4.4377   33.0026    7.1718 C   0  0  0  0  0  0  0  0  0  0  0  0
   -5.1287   34.0051    7.8499 C   0  0  0  0  0  0  0  0  0  0  0  0
   -4.8687   34.2392    9.1990 C   0  0  0  0  0  0  0  0  0  0  0  0
   -3.9177   33.4701    9.8717 C   0  0  0  0  0  0  0  0  0  0  0  0
  1  2  2  0  0  0
  2  8  1  0  0  0
  8  9  1  0  0  0
  9 10  1  0  0  0
 10 11  1  0  0  0
 11 12  2  0  0  0
 12 13  1  0  0  0
 13 14  2  0  0  0
  2  3  1  0  0  0
  3  4  1  0  0  0
  4  5  1  0  0  0
  5  6  1  0  0  0
  6  7  1  0  0  0
  7 15  1  0  0  0
 15 16  1  0  0  0
 16 17  1  0  0  0
 17 18  2  0  0  0
 18 19  1  0  0  0
 19 20  2  0  0  0
 20 21  1  0  0  0
 21 22  2  0  0  0
 14 10  1  0  0  0
  7  3  1  0  0  0
 22 17  1  0  0  0
M  END
> <minimizedAffinity>
-8.22101

$$$$
OCNT-2317221


 27 31  0  0  0  0  0  0  0  0999 V2000
   -4.3662   26.5868    4.0642 N   0  0  0  0  0  0  0  0  0  0  0  0
   -5.0574   26.1765    4.6894 H   0  0  0  0  0  0  0  0  0  0  0  0
   -3.1244   26.6623    4.6993 C   0  0  0  0  0  0  0  0  0  0  0  0
   -2.0538   25.9739    4.2224 N   0  0  0  0  0  0  0  0  0  0  0  0
   -0.8657   26.0933    4.8553 C   0  0  0  0  0  0  0  0  0  0  0  0
   -0.5709   26.8216    5.9480 N   0  0  0  0  0  0  0  0  0  0  0  0
   -1.6561   27.4816    6.3882 C   0  0  0  0  0  0  0  0  0  0  0  0
   -2.9328   27.4577    5.8460 C   0  0  0  0  0  0  0  0  0  0  0  0
   -3.8065   28.2403    6.5843 N   0  0  0  0  0  0  0  0  0  0  0  0
   -3.0654   28.7413    7.5529 C   0  0  0  0  0  0  0  0  0  0  0  0
   -1.7702   28.3224    7.4572 N   0  0  0  0  0  0  0  0  0  0  0  0
   -0.6917   28.6649    8.4025 C   0  0  0  0  0  0  0  0  0  0  0  0
    0.6532   29.1654    7.9314 C   0  0  0  0  0  0  0  0  0  0  0  0
   -0.2671   30.0902    8.6700 C   0  0  0  0  0  0  0  0  0  0  0  0
   -4.3358   26.0353    2.7246 C   0  0  0  0  0  0  0  0  0  0  0  0
   -5.8030   22.7237    3.7687 C   0  0  0  0  0  0  0  0  0  0  0  0
   -5.0794   23.8990    3.7968 C   0  0  0  0  0  0  0  0  0  0  0  0
   -5.1381   24.7534    2.6899 C   0  0  0  0  0  0  0  0  0  0  0  0
   -5.9571   24.3899    1.5901 C   0  0  0  0  0  0  0  0  0  0  0  0
   -6.1201   25.1838    0.4296 C   0  0  0  0  0  0  0  0  0  0  0  0
   -6.9348   24.7692   -0.6232 C   0  0  0  0  0  0  0  0  0  0  0  0
   -7.6018   23.5566   -0.5353 C   0  0  0  0  0  0  0  0  0  0  0  0
   -7.4535   22.7691    0.6079 C   0  0  0  0  0  0  0  0  0  0  0  0
   -6.6505   23.1591    1.6714 C   0  0  0  0  0  0  0  0  0  0  0  0
   -6.5733   22.3417    2.7332 N   0  0  0  0  0  0  0  0  0  0  0  0
   -6.2152   22.5334    6.0633 C   0  0  0  0  0  0  0  0  0  0  0  0
   -5.6990   21.9193    4.8869 O   0  0  0  0  0  0  0  0  0  0  0  0
 26 27  1  0  0  0
 27 16  1  0  0  0
 16 17  1  0  0  0
 17 18  2  0  0  0
 18 15  1  0  0  0
 15  1  1  0  0  0
  1  3  1  0  0  0
  3  4  1  0  0  0
  4  5  2  0  0  0
  5  6  1  0  0  0
  6  7  2  0  0  0
  7  8  1  0  0  0
  8  9  1  0  0  0
  9 10  2  0  0  0
 10 11  1  0  0  0
 11 12  1  0  0  0
 12 13  1  0  0  0
 13 14  1  0  0  0
 18 19  1  0  0  0
 19 20  2  0  0  0
 20 21  1  0  0  0
 21 22  2  0  0  0
 22 23  1  0  0  0
 23 24  2  0  0  0
 24 25  1  0  0  0
 25 16  2  0  0  0
  8  3  2  0  0  0
 14 12  1  0  0  0
 24 19  1  0  0  0
 11  7  1  0  0  0
  1  2  1  0  0  0
M  END
> <minimizedAffinity>
-9.87750

$$$$
OCNT-2317227


 27 29  0  0  0  0  0  0  0  0999 V2000
   -3.4707   30.1211    8.9406 C   0  0  0  0  0  0  0  0  0  0  0  0
   -3.3832   31.5625    9.4793 C   0  0  0  0  0  0  0  0  0  0  0  0
   -2.0524   32.0969    8.9710 C   0  0  0  0  0  0  0  0  0  0  0  0
   -1.2076   30.8506    8.7803 C   0  0  0  0  0  0  0  0  0  0  0  0
   -2.1515   29.8304    8.3779 N   0  0  0  0  0  0  0  0  0  0  0  0
   -1.6641   28.5565    8.1503 C   0  0  0  0  0  0  0  0  0  0  0  0
   -0.4707   28.2722    8.2553 O   0  0  0  0  0  0  0  0  0  0  0  0
   -2.6231   27.6414    7.7777 N   0  0  0  0  0  0  0  0  0  0  0  0
   -3.3474   28.0489    7.1771 H   0  0  0  0  0  0  0  0  0  0  0  0
   -3.7348   31.1665    6.0233 C   0  0  0  0  0  0  0  0  0  0  0  0
   -4.8064   30.3683    6.7209 C   0  0  0  0  0  0  0  0  0  0  0  0
   -5.9561   30.0653    5.9673 C   0  0  0  0  0  0  0  0  0  0  0  0
   -7.0106   29.3392    6.5162 C   0  0  0  0  0  0  0  0  0  0  0  0
   -6.9384   28.9063    7.8327 C   0  0  0  0  0  0  0  0  0  0  0  0
   -5.8061   29.1846    8.6156 C   0  0  0  0  0  0  0  0  0  0  0  0
   -5.8105   28.6778   10.0394 C   0  0  0  0  0  0  0  0  0  0  0  0
   -4.7001   29.8965    8.0584 C   0  0  0  0  0  0  0  0  0  0  0  0
   -2.2123   26.3118    7.3828 C   0  0  0  0  0  0  0  0  0  0  0  0
   -1.9764   26.2956    5.9030 C   0  0  0  0  0  0  0  0  0  0  0  0
   -0.7781   26.2432    5.3439 N   0  0  0  0  0  0  0  0  0  0  0  0
   -0.9863   26.2771    3.9920 C   0  0  0  0  0  0  0  0  0  0  0  0
   -2.3279   26.3601    3.7127 C   0  0  0  0  0  0  0  0  0  0  0  0
   -2.9562   26.3534    4.9349 N   0  0  0  0  0  0  0  0  0  0  0  0
   -4.3937   26.4379    5.1279 C   0  0  0  0  0  0  0  0  0  0  0  0
   -5.2033   26.1573    3.8510 C   0  0  0  0  0  0  0  0  0  0  0  0
   -6.2197   25.0292    4.0497 C   0  0  0  0  0  0  0  0  0  0  0  0
   -5.9244   27.4267    3.4053 C   0  0  0  0  0  0  0  0  0  0  0  0
 10 11  1  0  0  0
 11 12  1  0  0  0
 12 13  2  0  0  0
 13 14  1  0  0  0
 14 15  2  0  0  0
 15 16  1  0  0  0
 15 17  1  0  0  0
 17  1  1  0  0  0
  1  2  1  0  0  0
  2  3  1  0  0  0
  3  4  1  0  0  0
  4  5  1  0  0  0
  5  6  1  0  0  0
  6  7  2  0  0  0
  6  8  1  0  0  0
  8 18  1  0  0  0
 18 19  1  0  0  0
 19 20  2  0  0  0
 20 21  1  0  0  0
 21 22  2  0  0  0
 22 23  1  0  0  0
 23 24  1  0  0  0
 24 25  1  0  0  0
 25 26  1  0  0  0
 25 27  1  0  0  0
 17 11  2  0  0  0
  5  1  1  0  0  0
 23 19  1  0  0  0
  8  9  1  0  0  0
M  END
> <minimizedAffinity>
-8.58517

$$$$
OCNT-2317229


 28 29  0  0  0  0  0  0  0  0999 V2000
   -4.0263   28.3813    7.1466 N   0  0  0  0  0  0  0  0  0  0  0  0
   -4.5485   27.9890    5.9309 C   0  0  0  0  0  0  0  0  0  0  0  0
   -5.2488   28.7159    5.2391 O   0  0  0  0  0  0  0  0  0  0  0  0
   -4.1634   26.6964    5.6402 N   0  0  0  0  0  0  0  0  0  0  0  0
   -3.9179   27.6441    7.8201 H   0  0  0  0  0  0  0  0  0  0  0  0
   -3.3552   26.3693    6.1474 H   0  0  0  0  0  0  0  0  0  0  0  0
   -4.6433   25.8783    4.6002 C   0  0  0  0  0  0  0  0  0  0  0  0
   -5.9317   25.3387    4.5802 C   0  0  0  0  0  0  0  0  0  0  0  0
   -6.3370   24.5067    3.5308 C   0  0  0  0  0  0  0  0  0  0  0  0
   -5.4582   24.2290    2.4801 C   0  0  0  0  0  0  0  0  0  0  0  0
   -4.1578   24.7336    2.5083 C   0  0  0  0  0  0  0  0  0  0  0  0
   -3.7533   25.5558    3.5664 C   0  0  0  0  0  0  0  0  0  0  0  0
   -5.8570   23.3223    1.3770 C   0  0  0  0  0  0  0  0  0  0  0  0
   -5.6146   22.1256    1.5139 O   0  0  0  0  0  0  0  0  0  0  0  0
   -6.4972   23.8560    0.2581 N   0  0  0  0  0  0  0  0  0  0  0  0
   -6.4474   25.2607   -0.1315 C   0  0  0  0  0  0  0  0  0  0  0  0
   -7.0867   22.9382   -0.6989 C   0  0  0  0  0  0  0  0  0  0  0  0
   -4.3437   29.6825    7.6936 C   0  0  0  0  0  0  0  0  0  0  0  0
   -3.1312   31.5268    9.0380 C   0  0  0  0  0  0  0  0  0  0  0  0
   -1.9173   32.0154    9.5561 C   0  0  0  0  0  0  0  0  0  0  0  0
   -0.7108   31.3497    9.3365 C   0  0  0  0  0  0  0  0  0  0  0  0
   -0.6933   30.1734    8.5960 C   0  0  0  0  0  0  0  0  0  0  0  0
   -1.8840   29.6623    8.0887 C   0  0  0  0  0  0  0  0  0  0  0  0
   -3.1152   30.3138    8.3100 C   0  0  0  0  0  0  0  0  0  0  0  0
   -4.3952   32.3171    9.3188 C   0  0  0  0  0  0  0  0  0  0  0  0
   -5.2629   33.9662    7.5796 C   0  0  0  0  0  0  0  0  0  0  0  0
   -4.3734   33.7744    8.8086 C   0  0  0  0  0  0  0  0  0  0  0  0
   -4.8265   34.7221    9.9218 C   0  0  0  0  0  0  0  0  0  0  0  0
 26 27  1  0  0  0
 27 28  1  0  0  0
 27 25  1  0  0  0
 25 19  1  0  0  0
 19 20  2  0  0  0
 20 21  1  0  0  0
 21 22  2  0  0  0
 22 23  1  0  0  0
 23 24  2  0  0  0
 24 18  1  0  0  0
 18  1  1  0  0  0
  1  2  1  0  0  0
  2  3  2  0  0  0
  2  4  1  0  0  0
  4  7  1  0  0  0
  7  8  1  0  0  0
  8  9  2  0  0  0
  9 10  1  0  0  0
 10 13  1  0  0  0
 13 14  2  0  0  0
 13 15  1  0  0  0
 15 16  1  0  0  0
 15 17  1  0  0  0
 10 11  2  0  0  0
 11 12  1  0  0  0
 24 19  1  0  0  0
 12  7  2  0  0  0
  1  5  1  0  0  0
  4  6  1  0  0  0
M  END
> <minimizedAffinity>
-9.62656

$$$$
OCNT-2317255


 27 29  0  0  0  0  0  0  0  0999 V2000
   -3.8519   26.6731    4.3082 N   0  0  0  0  0  0  0  0  0  0  0  0
   -5.2137   27.1041    4.5981 C   0  0  0  0  0  0  0  0  0  0  0  0
   -2.8265   26.6171    5.2354 C   0  0  0  0  0  0  0  0  0  0  0  0
   -1.7171   26.1519    4.9888 O   0  0  0  0  0  0  0  0  0  0  0  0
   -3.1410   27.1295    6.4691 N   0  0  0  0  0  0  0  0  0  0  0  0
   -3.7484   27.9329    6.4341 H   0  0  0  0  0  0  0  0  0  0  0  0
   -3.5363   26.3796    2.9124 C   0  0  0  0  0  0  0  0  0  0  0  0
   -6.0251   23.1984    1.3550 C   0  0  0  0  0  0  0  0  0  0  0  0
   -6.1969   24.5141    0.9202 C   0  0  0  0  0  0  0  0  0  0  0  0
   -5.3908   25.5404    1.4174 C   0  0  0  0  0  0  0  0  0  0  0  0
   -4.3943   25.2640    2.3617 C   0  0  0  0  0  0  0  0  0  0  0  0
   -4.2266   23.9434    2.7986 C   0  0  0  0  0  0  0  0  0  0  0  0
   -5.0361   22.9168    2.2975 C   0  0  0  0  0  0  0  0  0  0  0  0
   -7.6465   22.7395   -0.3214 C   0  0  0  0  0  0  0  0  0  0  0  0
   -6.8803   22.2931    0.7899 O   0  0  0  0  0  0  0  0  0  0  0  0
   -2.1765   27.0999    7.5463 C   0  0  0  0  0  0  0  0  0  0  0  0
   -1.8065   28.4838    8.0110 C   0  0  0  0  0  0  0  0  0  0  0  0
   -0.4283   28.7371    8.1807 C   0  0  0  0  0  0  0  0  0  0  0  0
    0.0274   29.9444    8.6936 C   0  0  0  0  0  0  0  0  0  0  0  0
   -0.9120   30.8846    9.0453 C   0  0  0  0  0  0  0  0  0  0  0  0
   -2.2386   30.6944    8.9041 N   0  0  0  0  0  0  0  0  0  0  0  0
   -2.6873   29.5137    8.3774 C   0  0  0  0  0  0  0  0  0  0  0  0
   -4.1125   29.4437    8.2599 N   0  0  0  0  0  0  0  0  0  0  0  0
   -4.9647   29.8077    7.2407 C   0  0  0  0  0  0  0  0  0  0  0  0
   -6.2372   29.5136    7.6737 C   0  0  0  0  0  0  0  0  0  0  0  0
   -6.2156   29.0061    8.9369 N   0  0  0  0  0  0  0  0  0  0  0  0
   -4.9446   29.0061    9.2758 C   0  0  0  0  0  0  0  0  0  0  0  0
 14 15  1  0  0  0
 15  8  1  0  0  0
  8  9  1  0  0  0
  9 10  2  0  0  0
 10 11  1  0  0  0
 11  7  1  0  0  0
  7  1  1  0  0  0
  1  2  1  0  0  0
  1  3  1  0  0  0
  3  4  2  0  0  0
  3  5  1  0  0  0
  5 16  1  0  0  0
 16 17  1  0  0  0
 17 18  1  0  0  0
 18 19  2  0  0  0
 19 20  1  0  0  0
 20 21  2  0  0  0
 21 22  1  0  0  0
 22 23  1  0  0  0
 23 24  1  0  0  0
 24 25  2  0  0  0
 25 26  1  0  0  0
 26 27  2  0  0  0
 11 12  2  0  0  0
 12 13  1  0  0  0
 13  8  2  0  0  0
 22 17  2  0  0  0
 27 23  1  0  0  0
  5  6  1  0  0  0
M  END
> <minimizedAffinity>
-8.97089

$$$$
OCNT-2317262


 29 31  0  0  0  0  0  0  0  0999 V2000
   -4.9122   26.2896    2.7517 C   0  0  0  0  0  0  0  0  0  0  0  0
   -3.3805   26.3428    2.8149 C   0  0  0  0  0  0  0  0  0  0  0  0
   -2.8139   25.6702    4.0720 C   0  0  0  0  0  0  0  0  0  0  0  0
   -3.7624   25.7235    5.2715 C   0  0  0  0  0  0  0  0  0  0  0  0
   -4.6310   26.8932    5.1772 N   0  0  0  0  0  0  0  0  0  0  0  0
   -4.4980   28.0696    5.9154 C   0  0  0  0  0  0  0  0  0  0  0  0
   -5.0319   29.1163    5.5568 O   0  0  0  0  0  0  0  0  0  0  0  0
   -3.7454   27.9366    7.0602 N   0  0  0  0  0  0  0  0  0  0  0  0
   -5.5437   26.8821    4.0260 C   0  0  0  0  0  0  0  0  0  0  0  0
   -3.7565   27.0160    7.4678 H   0  0  0  0  0  0  0  0  0  0  0  0
   -3.2811   28.9684    7.9023 C   0  0  0  0  0  0  0  0  0  0  0  0
   -1.9046   29.2286    7.9041 C   0  0  0  0  0  0  0  0  0  0  0  0
   -1.3728   30.2460    8.7010 C   0  0  0  0  0  0  0  0  0  0  0  0
   -2.2143   31.0174    9.4980 C   0  0  0  0  0  0  0  0  0  0  0  0
   -3.5857   30.7738    9.4936 C   0  0  0  0  0  0  0  0  0  0  0  0
   -4.1178   29.7558    8.6958 C   0  0  0  0  0  0  0  0  0  0  0  0
   -6.4357   24.4635    3.2797 N   0  0  0  0  0  0  0  0  0  0  0  0
   -5.3958   24.8687    2.4671 C   0  0  0  0  0  0  0  0  0  0  0  0
   -4.9271   24.1516    1.5900 O   0  0  0  0  0  0  0  0  0  0  0  0
   -6.6813   25.0281    4.0829 H   0  0  0  0  0  0  0  0  0  0  0  0
   -6.9832   23.1194    3.1961 C   0  0  0  0  0  0  0  0  0  0  0  0
   -6.4332   22.1972    4.3040 C   0  0  0  0  0  0  0  0  0  0  0  0
   -5.4562   21.8676    7.0996 C   0  0  0  0  0  0  0  0  0  0  0  0
   -6.8700   22.3572    6.7553 C   0  0  0  0  0  0  0  0  0  0  0  0
   -7.8290   21.8625    7.8579 C   0  0  0  0  0  0  0  0  0  0  0  0
   -9.2701   22.2770    7.5885 C   0  0  0  0  0  0  0  0  0  0  0  0
   -9.6912   21.8363    6.1951 C   0  0  0  0  0  0  0  0  0  0  0  0
   -8.7042   22.3362    5.1422 C   0  0  0  0  0  0  0  0  0  0  0  0
   -7.3317   21.8882    5.4330 N   0  0  0  0  0  0  0  0  0  0  0  0
 23 24  1  0  0  0
 24 25  1  0  0  0
 25 26  1  0  0  0
 26 27  1  0  0  0
 27 28  1  0  0  0
 28 29  1  0  0  0
 29 22  1  0  0  0
 22 21  1  0  0  0
 21 17  1  0  0  0
 17 18  1  0  0  0
 18 19  2  0  0  0
 18  1  1  0  0  0
  1  2  1  0  0  0
  2  3  1  0  0  0
  3  4  1  0  0  0
  4  5  1  0  0  0
  5  6  1  0  0  0
  6  7  2  0  0  0
  6  8  1  0  0  0
  8 11  1  0  0  0
 11 12  2  0  0  0
 12 13  1  0  0  0
 13 14  2  0  0  0
 14 15  1  0  0  0
 15 16  2  0  0  0
  5  9  1  0  0  0
 29 24  1  0  0  0
  9  1  1  0  0  0
 16 11  1  0  0  0
 17 20  1  0  0  0
  8 10  1  0  0  0
M  END
> <minimizedAffinity>
-8.99975

$$$$
OCNT-2317271


 22 24  0  0  0  0  0  0  0  0999 V2000
   -4.5994   26.1031    3.0149 C   0  0  0  0  0  0  0  0  0  0  0  0
   -5.8295   26.7220    3.2566 C   0  0  0  0  0  0  0  0  0  0  0  0
   -5.9846   27.5686    4.3493 C   0  0  0  0  0  0  0  0  0  0  0  0
   -4.9148   27.7921    5.2129 C   0  0  0  0  0  0  0  0  0  0  0  0
   -3.6602   27.1714    5.0160 C   0  0  0  0  0  0  0  0  0  0  0  0
   -2.5423   27.3657    5.8768 C   0  0  0  0  0  0  0  0  0  0  0  0
   -1.3371   26.8020    5.6332 N   0  0  0  0  0  0  0  0  0  0  0  0
   -1.2149   26.0139    4.5501 C   0  0  0  0  0  0  0  0  0  0  0  0
   -2.2463   25.7455    3.6734 C   0  0  0  0  0  0  0  0  0  0  0  0
   -3.5032   26.3287    3.8897 C   0  0  0  0  0  0  0  0  0  0  0  0
   -2.6819   28.1464    7.0470 N   0  0  0  0  0  0  0  0  0  0  0  0
   -1.6848   27.7694    8.0768 C   0  0  0  0  0  0  0  0  0  0  0  0
   -0.8247   28.9699    8.4986 C   0  0  0  0  0  0  0  0  0  0  0  0
   -1.6071   30.0787    8.9587 O   0  0  0  0  0  0  0  0  0  0  0  0
   -2.7420   30.3876    8.1151 C   0  0  0  0  0  0  0  0  0  0  0  0
   -2.7354   29.5976    6.7815 C   0  0  0  0  0  0  0  0  0  0  0  0
   -4.0674   30.1479    8.8911 C   0  0  0  0  0  0  0  0  0  0  0  0
   -5.3430   30.1509    8.1401 N   0  0  0  0  0  0  0  0  0  0  0  0
   -6.0283   31.4379    8.2006 C   0  0  0  0  0  0  0  0  0  0  0  0
   -6.2375   29.0678    8.5390 C   0  0  0  0  0  0  0  0  0  0  0  0
   -5.3983   25.0949    0.9958 C   0  0  0  0  0  0  0  0  0  0  0  0
   -4.3605   25.2611    1.9531 O   0  0  0  0  0  0  0  0  0  0  0  0
 21 22  1  0  0  0
 22  1  1  0  0  0
  1  2  2  0  0  0
  2  3  1  0  0  0
  3  4  2  0  0  0
  4  5  1  0  0  0
  5  6  2  0  0  0
  6 11  1  0  0  0
 11 12  1  0  0  0
 12 13  1  0  0  0
 13 14  1  0  0  0
 14 15  1  0  0  0
 15 17  1  0  0  0
 17 18  1  0  0  0
 18 19  1  0  0  0
 18 20  1  0  0  0
 15 16  1  0  0  0
  6  7  1  0  0  0
  7  8  2  0  0  0
  8  9  1  0  0  0
  9 10  2  0  0  0
 10  1  1  0  0  0
 10  5  1  0  0  0
 16 11  1  0  0  0
M  END
> <minimizedAffinity>
-7.62603

$$$$
OCNT-2317273


 25 27  0  0  0  0  0  0  0  0999 V2000
   -5.2399   24.1976    1.8027 N   0  0  0  0  0  0  0  0  0  0  0  0
   -5.9535   25.3399    1.1883 C   0  0  0  0  0  0  0  0  0  0  0  0
   -6.5253   25.0695   -0.2095 C   0  0  0  0  0  0  0  0  0  0  0  0
   -7.6200   24.0150   -0.2432 C   0  0  0  0  0  0  0  0  0  0  0  0
   -7.0923   22.6776   -0.1391 N   0  0  0  0  0  0  0  0  0  0  0  0
   -6.3356   22.2029    0.8997 C   0  0  0  0  0  0  0  0  0  0  0  0
   -5.7714   21.1166    0.7631 O   0  0  0  0  0  0  0  0  0  0  0  0
   -6.2046   23.1004    2.1592 C   0  0  0  0  0  0  0  0  0  0  0  0
   -7.0684   22.0850   -0.9600 H   0  0  0  0  0  0  0  0  0  0  0  0
   -4.4110   24.6496    2.9397 C   0  0  0  0  0  0  0  0  0  0  0  0
   -5.7276   27.6150    4.4240 N   0  0  0  0  0  0  0  0  0  0  0  0
   -6.3577   26.7455    5.2672 C   0  0  0  0  0  0  0  0  0  0  0  0
   -5.9794   25.4870    4.8679 C   0  0  0  0  0  0  0  0  0  0  0  0
   -5.1116   25.6941    3.7677 C   0  0  0  0  0  0  0  0  0  0  0  0
   -4.9640   27.0006    3.4981 N   0  0  0  0  0  0  0  0  0  0  0  0
   -6.8059   29.5467    5.5209 C   0  0  0  0  0  0  0  0  0  0  0  0
   -5.8177   29.0711    4.4568 C   0  0  0  0  0  0  0  0  0  0  0  0
   -6.1620   29.6403    3.0810 C   0  0  0  0  0  0  0  0  0  0  0  0
   -5.8518   22.1949    3.3728 C   0  0  0  0  0  0  0  0  0  0  0  0
   -6.9385   22.1720    4.4316 C   0  0  0  0  0  0  0  0  0  0  0  0
   -6.6016   22.1492    5.7932 C   0  0  0  0  0  0  0  0  0  0  0  0
   -7.5988   22.1370    6.7696 C   0  0  0  0  0  0  0  0  0  0  0  0
   -8.9411   22.1487    6.3961 C   0  0  0  0  0  0  0  0  0  0  0  0
   -9.2869   22.1716    5.0466 C   0  0  0  0  0  0  0  0  0  0  0  0
   -8.2911   22.1820    4.0687 C   0  0  0  0  0  0  0  0  0  0  0  0
 16 17  1  0  0  0
 17 18  1  0  0  0
 17 11  1  0  0  0
 11 12  1  0  0  0
 12 13  2  0  0  0
 13 14  1  0  0  0
 14 10  1  0  0  0
 10  1  1  0  0  0
  1  2  1  0  0  0
  2  3  1  0  0  0
  3  4  1  0  0  0
  4  5  1  0  0  0
  5  6  1  0  0  0
  6  7  2  0  0  0
  6  8  1  0  0  0
  8 19  1  0  0  0
 19 20  1  0  0  0
 20 21  2  0  0  0
 21 22  1  0  0  0
 22 23  2  0  0  0
 23 24  1  0  0  0
 24 25  2  0  0  0
 14 15  2  0  0  0
 15 11  1  0  0  0
  8  1  1  0  0  0
 25 20  1  0  0  0
  5  9  1  0  0  0
M  END
> <minimizedAffinity>
-8.72624

$$$$
OCNT-2317274


 25 27  0  0  0  0  0  0  0  0999 V2000
   -5.3234   28.2486    6.0522 C   0  0  0  0  0  0  0  0  0  0  0  0
   -4.7416   27.4060    5.0533 O   0  0  0  0  0  0  0  0  0  0  0  0
   -1.1961   27.2374    6.1927 C   0  0  0  0  0  0  0  0  0  0  0  0
   -0.7166   26.3575    5.2218 C   0  0  0  0  0  0  0  0  0  0  0  0
   -1.5732   25.8562    4.2395 C   0  0  0  0  0  0  0  0  0  0  0  0
   -2.9140   26.2339    4.2222 C   0  0  0  0  0  0  0  0  0  0  0  0
   -3.4107   27.1150    5.1823 C   0  0  0  0  0  0  0  0  0  0  0  0
   -2.5498   27.6126    6.1652 C   0  0  0  0  0  0  0  0  0  0  0  0
    1.1503   29.1523    8.4450 C   0  0  0  0  0  0  0  0  0  0  0  0
    0.4611   28.8679    7.1334 C   0  0  0  0  0  0  0  0  0  0  0  0
    0.7022   29.5448    6.1406 O   0  0  0  0  0  0  0  0  0  0  0  0
   -0.3973   27.7863    7.2195 N   0  0  0  0  0  0  0  0  0  0  0  0
   -0.4562   27.3266    8.1190 H   0  0  0  0  0  0  0  0  0  0  0  0
   -5.3526   29.6822    5.5109 C   0  0  0  0  0  0  0  0  0  0  0  0
   -4.6504   30.6709    6.3436 N   0  0  0  0  0  0  0  0  0  0  0  0
   -3.7336   30.8165    5.9173 H   0  0  0  0  0  0  0  0  0  0  0  0
   -4.5690   30.2224    7.7379 C   0  0  0  0  0  0  0  0  0  0  0  0
   -3.1113   30.3857    8.2471 C   0  0  0  0  0  0  0  0  0  0  0  0
   -2.0498   31.3356    7.6922 C   0  0  0  0  0  0  0  0  0  0  0  0
   -1.4580   31.9492    8.9513 C   0  0  0  0  0  0  0  0  0  0  0  0
   -2.6801   32.2472    9.8109 C   0  0  0  0  0  0  0  0  0  0  0  0
   -3.6552   31.1085    9.5050 C   0  0  0  0  0  0  0  0  0  0  0  0
   -5.0201   31.3413    8.7429 C   0  0  0  0  0  0  0  0  0  0  0  0
   -5.2843   32.7540    8.2121 C   0  0  0  0  0  0  0  0  0  0  0  0
   -6.1995   30.9002    9.6231 C   0  0  0  0  0  0  0  0  0  0  0  0
  9 10  1  0  0  0
 10 11  2  0  0  0
 10 12  1  0  0  0
 12  3  1  0  0  0
  3  4  2  0  0  0
  4  5  1  0  0  0
  5  6  2  0  0  0
  6  7  1  0  0  0
  7  2  1  0  0  0
  2  1  1  0  0  0
  1 14  1  0  0  0
 14 15  1  0  0  0
 15 17  1  0  0  0
 17 18  1  0  0  0
 18 19  1  0  0  0
 19 20  1  0  0  0
 20 21  1  0  0  0
 21 22  1  0  0  0
 22 23  1  0  0  0
 23 24  1  0  0  0
 23 25  1  0  0  0
  7  8  2  0  0  0
  8  3  1  0  0  0
 23 17  1  0  0  0
 22 18  1  0  0  0
 12 13  1  0  0  0
 15 16  1  0  0  0
M  END
> <minimizedAffinity>
-8.92470

$$$$
OCNT-2317275


 23 26  0  0  0  0  0  0  0  0999 V2000
   -4.8108   31.0331    7.7522 C   0  0  0  0  0  0  0  0  0  0  0  0
   -5.9309   31.6691    8.5961 C   0  0  0  0  0  0  0  0  0  0  0  0
   -6.3116   30.5717    9.5782 C   0  0  0  0  0  0  0  0  0  0  0  0
   -6.2032   29.3087    8.7309 C   0  0  0  0  0  0  0  0  0  0  0  0
   -5.0868   29.5899    7.8402 N   0  0  0  0  0  0  0  0  0  0  0  0
   -4.7077   28.7650    6.8252 C   0  0  0  0  0  0  0  0  0  0  0  0
   -3.5358   28.1585    6.7626 N   0  0  0  0  0  0  0  0  0  0  0  0
   -3.3873   27.3618    5.6477 N   0  0  0  0  0  0  0  0  0  0  0  0
   -4.4634   27.3758    4.8910 C   0  0  0  0  0  0  0  0  0  0  0  0
   -5.7273   28.3618    5.4856 S   0  0  0  0  0  0  0  0  0  0  0  0
   -4.5526   26.5495    3.5628 C   0  0  0  0  0  0  0  0  0  0  0  0
   -3.5124   25.8966    3.0268 N   0  0  0  0  0  0  0  0  0  0  0  0
   -4.0012   25.3017    1.8747 O   0  0  0  0  0  0  0  0  0  0  0  0
   -5.3161   25.6024    1.7359 C   0  0  0  0  0  0  0  0  0  0  0  0
   -5.7182   26.3919    2.7800 C   0  0  0  0  0  0  0  0  0  0  0  0
   -3.4060   31.3556    8.2959 C   0  0  0  0  0  0  0  0  0  0  0  0
   -2.4271   31.3903    7.2535 O   0  0  0  0  0  0  0  0  0  0  0  0
    1.0293   29.1912    8.0089 C   0  0  0  0  0  0  0  0  0  0  0  0
    0.2976   29.7907    9.0302 C   0  0  0  0  0  0  0  0  0  0  0  0
   -0.8555   30.5161    8.7250 C   0  0  0  0  0  0  0  0  0  0  0  0
   -1.2881   30.6493    7.4021 C   0  0  0  0  0  0  0  0  0  0  0  0
   -0.5509   30.0451    6.3834 C   0  0  0  0  0  0  0  0  0  0  0  0
    0.6052   29.3186    6.6876 C   0  0  0  0  0  0  0  0  0  0  0  0
 18 19  2  0  0  0
 19 20  1  0  0  0
 20 21  2  0  0  0
 21 17  1  0  0  0
 17 16  1  0  0  0
 16  1  1  0  0  0
  1  2  1  0  0  0
  2  3  1  0  0  0
  3  4  1  0  0  0
  4  5  1  0  0  0
  5  6  1  0  0  0
  6  7  2  0  0  0
  7  8  1  0  0  0
  8  9  2  0  0  0
  9 11  1  0  0  0
 11 12  2  0  0  0
 12 13  1  0  0  0
 13 14  1  0  0  0
 14 15  2  0  0  0
  9 10  1  0  0  0
 21 22  1  0  0  0
 22 23  2  0  0  0
 23 18  1  0  0  0
  5  1  1  0  0  0
 10  6  1  0  0  0
 15 11  1  0  0  0
M  END
> <minimizedAffinity>
-8.45628

$$$$
OCNT-2317285


 22 24  0  0  0  0  0  0  0  0999 V2000
   -0.9580   26.5468    5.4613 O   0  0  0  0  0  0  0  0  0  0  0  0
   -2.1374   26.8524    5.6311 C   0  0  0  0  0  0  0  0  0  0  0  0
   -3.1461   26.3213    4.8573 N   0  0  0  0  0  0  0  0  0  0  0  0
   -4.5703   26.5972    4.9577 C   0  0  0  0  0  0  0  0  0  0  0  0
   -5.2204   25.5443    4.0713 C   0  0  0  0  0  0  0  0  0  0  0  0
   -4.1651   25.3150    2.9822 C   0  0  0  0  0  0  0  0  0  0  0  0
   -2.8596   25.3953    3.7749 C   0  0  0  0  0  0  0  0  0  0  0  0
   -2.5717   27.8311    6.7062 C   0  0  0  0  0  0  0  0  0  0  0  0
   -1.3986   28.2591    7.5862 C   0  0  0  0  0  0  0  0  0  0  0  0
   -1.7259   29.5018    8.3745 C   0  0  0  0  0  0  0  0  0  0  0  0
   -0.7181   30.3875    8.7635 C   0  0  0  0  0  0  0  0  0  0  0  0
   -1.0719   31.5287    9.4672 C   0  0  0  0  0  0  0  0  0  0  0  0
   -2.3417   31.8446    9.7991 N   0  0  0  0  0  0  0  0  0  0  0  0
   -3.3001   30.9755    9.4136 C   0  0  0  0  0  0  0  0  0  0  0  0
   -3.0471   29.8093    8.7076 C   0  0  0  0  0  0  0  0  0  0  0  0
   -4.3095   23.9915    2.2312 C   0  0  0  0  0  0  0  0  0  0  0  0
   -5.4726   23.9916    1.2698 C   0  0  0  0  0  0  0  0  0  0  0  0
   -6.3145   22.8751    1.1735 C   0  0  0  0  0  0  0  0  0  0  0  0
   -7.3821   22.8690    0.2748 C   0  0  0  0  0  0  0  0  0  0  0  0
   -7.6181   23.9771   -0.5364 C   0  0  0  0  0  0  0  0  0  0  0  0
   -6.7869   25.0922   -0.4494 C   0  0  0  0  0  0  0  0  0  0  0  0
   -5.7186   25.1002    0.4488 C   0  0  0  0  0  0  0  0  0  0  0  0
  1  2  2  0  0  0
  2  8  1  0  0  0
  8  9  1  0  0  0
  9 10  1  0  0  0
 10 11  2  0  0  0
 11 12  1  0  0  0
 12 13  2  0  0  0
 13 14  1  0  0  0
 14 15  2  0  0  0
  2  3  1  0  0  0
  3  4  1  0  0  0
  4  5  1  0  0  0
  5  6  1  0  0  0
  6 16  1  0  0  0
 16 17  1  0  0  0
 17 18  2  0  0  0
 18 19  1  0  0  0
 19 20  2  0  0  0
 20 21  1  0  0  0
 21 22  2  0  0  0
  6  7  1  0  0  0
 15 10  1  0  0  0
  7  3  1  0  0  0
 22 17  1  0  0  0
M  END
> <minimizedAffinity>
-8.88612

$$$$
OCNT-2317287


 27 30  0  0  0  0  0  0  0  0999 V2000
   -5.7897   28.0899    5.0069 C   0  0  0  0  0  0  0  0  0  0  0  0
   -5.5829   28.0887    3.4798 C   0  0  0  0  0  0  0  0  0  0  0  0
   -4.6245   26.9832    3.0422 C   0  0  0  0  0  0  0  0  0  0  0  0
   -5.0752   25.6389    3.4334 N   0  0  0  0  0  0  0  0  0  0  0  0
   -6.1422   25.6334    4.4316 C   0  0  0  0  0  0  0  0  0  0  0  0
   -5.8467   26.6384    5.5452 C   0  0  0  0  0  0  0  0  0  0  0  0
   -5.1767   24.6794    2.3013 C   0  0  0  0  0  0  0  0  0  0  0  0
   -4.1084   23.6211    2.5406 C   0  0  0  0  0  0  0  0  0  0  0  0
   -4.1872   22.3064    2.8096 C   0  0  0  0  0  0  0  0  0  0  0  0
   -5.4242   21.4822    2.9712 C   0  0  0  0  0  0  0  0  0  0  0  0
   -6.0497   21.0523    1.6432 C   0  0  0  0  0  0  0  0  0  0  0  0
   -6.0177   22.0814    0.5112 C   0  0  0  0  0  0  0  0  0  0  0  0
   -6.8302   23.3524    0.7345 C   0  0  0  0  0  0  0  0  0  0  0  0
   -6.6156   24.1694    2.0156 C   0  0  0  0  0  0  0  0  0  0  0  0
   -4.6749   28.8446    5.7013 C   0  0  0  0  0  0  0  0  0  0  0  0
   -3.5695   28.4043    6.2654 N   0  0  0  0  0  0  0  0  0  0  0  0
   -2.9398   29.5680    6.6725 C   0  0  0  0  0  0  0  0  0  0  0  0
   -3.6223   30.6812    6.3548 N   0  0  0  0  0  0  0  0  0  0  0  0
   -4.7597   30.2073    5.7153 O   0  0  0  0  0  0  0  0  0  0  0  0
   -1.6460   29.5576    7.3626 C   0  0  0  0  0  0  0  0  0  0  0  0
   -1.4346   30.3792    8.4694 C   0  0  0  0  0  0  0  0  0  0  0  0
   -0.1986   30.3425    9.1115 C   0  0  0  0  0  0  0  0  0  0  0  0
    0.7923   29.4951    8.6315 C   0  0  0  0  0  0  0  0  0  0  0  0
    0.5051   28.7133    7.5253 C   0  0  0  0  0  0  0  0  0  0  0  0
   -0.6840   28.7227    6.8855 N   0  0  0  0  0  0  0  0  0  0  0  0
   -7.4058   28.6278    6.7844 C   0  0  0  0  0  0  0  0  0  0  0  0
   -7.0481   28.6850    5.4113 O   0  0  0  0  0  0  0  0  0  0  0  0
 26 27  1  0  0  0
 27  1  1  0  0  0
  1 15  1  0  0  0
 15 16  2  0  0  0
 16 17  1  0  0  0
 17 20  1  0  0  0
 20 21  2  0  0  0
 21 22  1  0  0  0
 22 23  2  0  0  0
 23 24  1  0  0  0
 24 25  2  0  0  0
 17 18  2  0  0  0
 18 19  1  0  0  0
  1  2  1  0  0  0
  2  3  1  0  0  0
  3  4  1  0  0  0
  4  7  1  0  0  0
  7  8  1  0  0  0
  8  9  2  0  0  0
  9 10  1  0  0  0
 10 11  1  0  0  0
 11 12  1  0  0  0
 12 13  1  0  0  0
 13 14  1  0  0  0
  4  5  1  0  0  0
  5  6  1  0  0  0
  6  1  1  0  0  0
 19 15  1  0  0  0
 14  7  1  0  0  0
 25 20  1  0  0  0
M  END
> <minimizedAffinity>
-9.66574

$$$$
OCNT-2317297


 27 29  0  0  0  0  0  0  0  0999 V2000
   -6.5373   27.7922    5.2930 O   0  0  0  0  0  0  0  0  0  0  0  0
   -5.3444   27.5990    5.5068 C   0  0  0  0  0  0  0  0  0  0  0  0
   -4.7470   26.3882    5.2738 N   0  0  0  0  0  0  0  0  0  0  0  0
   -4.4965   28.5830    5.9977 N   0  0  0  0  0  0  0  0  0  0  0  0
   -5.0379   29.9390    6.1106 C   0  0  0  0  0  0  0  0  0  0  0  0
   -5.6097   30.2083    7.5022 C   0  0  0  0  0  0  0  0  0  0  0  0
   -4.5949   30.5283    8.4569 O   0  0  0  0  0  0  0  0  0  0  0  0
   -3.7111   29.4452    8.7592 C   0  0  0  0  0  0  0  0  0  0  0  0
   -2.6635   29.2642    7.6537 C   0  0  0  0  0  0  0  0  0  0  0  0
   -3.1703   28.3072    6.5537 C   0  0  0  0  0  0  0  0  0  0  0  0
   -3.7753   26.4332    5.0065 H   0  0  0  0  0  0  0  0  0  0  0  0
   -1.3142   28.7220    8.1727 C   0  0  0  0  0  0  0  0  0  0  0  0
   -0.1881   29.7003    8.5963 C   0  0  0  0  0  0  0  0  0  0  0  0
    0.6102   29.2965    7.3476 C   0  0  0  0  0  0  0  0  0  0  0  0
   -0.3212   28.0865    7.1684 C   0  0  0  0  0  0  0  0  0  0  0  0
   -5.4962   25.2854    4.6937 C   0  0  0  0  0  0  0  0  0  0  0  0
   -5.3254   25.1672    3.1739 C   0  0  0  0  0  0  0  0  0  0  0  0
   -5.4905   23.7484    2.6718 C   0  0  0  0  0  0  0  0  0  0  0  0
   -5.4187   22.6808    3.5808 C   0  0  0  0  0  0  0  0  0  0  0  0
   -5.5967   21.3661    3.1494 C   0  0  0  0  0  0  0  0  0  0  0  0
   -5.8605   21.1029    1.8075 C   0  0  0  0  0  0  0  0  0  0  0  0
   -5.9375   22.1528    0.8928 C   0  0  0  0  0  0  0  0  0  0  0  0
   -5.7321   23.4687    1.3185 C   0  0  0  0  0  0  0  0  0  0  0  0
   -5.8267   24.5247    0.4520 O   0  0  0  0  0  0  0  0  0  0  0  0
   -7.0100   24.4668   -0.3343 C   0  0  0  0  0  0  0  0  0  0  0  0
   -8.0342   24.0360    0.4439 F   0  0  0  0  0  0  0  0  0  0  0  0
   -7.3101   25.7390   -0.6998 F   0  0  0  0  0  0  0  0  0  0  0  0
  1  2  2  0  0  0
  2  3  1  0  0  0
  3 16  1  0  0  0
 16 17  1  0  0  0
 17 18  1  0  0  0
 18 19  2  0  0  0
 19 20  1  0  0  0
 20 21  2  0  0  0
 21 22  1  0  0  0
 22 23  2  0  0  0
 23 24  1  0  0  0
 24 25  1  0  0  0
 25 26  1  0  0  0
 25 27  1  0  0  0
  2  4  1  0  0  0
  4  5  1  0  0  0
  5  6  1  0  0  0
  6  7  1  0  0  0
  7  8  1  0  0  0
  8  9  1  0  0  0
  9 12  1  0  0  0
 12 13  1  0  0  0
 13 14  1  0  0  0
 14 15  1  0  0  0
  9 10  1  0  0  0
 23 18  1  0  0  0
 10  4  1  0  0  0
 15 12  1  0  0  0
  3 11  1  0  0  0
M  END
> <minimizedAffinity>
-9.49824

$$$$
OCNT-2317299


 25 27  0  0  0  0  0  0  0  0999 V2000
   -6.1474   28.7641    4.1513 O   0  0  0  0  0  0  0  0  0  0  0  0
   -6.0112   27.6873    4.7270 C   0  0  0  0  0  0  0  0  0  0  0  0
   -6.0484   27.5700    6.0914 N   0  0  0  0  0  0  0  0  0  0  0  0
   -5.8121   26.5004    4.0510 N   0  0  0  0  0  0  0  0  0  0  0  0
   -5.9579   25.1640    4.6385 C   0  0  0  0  0  0  0  0  0  0  0  0
   -6.3824   24.1063    3.6001 C   0  0  0  0  0  0  0  0  0  0  0  0
   -5.4551   24.0236    2.4643 N   0  0  0  0  0  0  0  0  0  0  0  0
   -4.9059   25.3245    2.0528 C   0  0  0  0  0  0  0  0  0  0  0  0
   -5.6664   26.5467    2.5956 C   0  0  0  0  0  0  0  0  0  0  0  0
   -5.5801   26.7760    6.4966 H   0  0  0  0  0  0  0  0  0  0  0  0
   -6.3455   28.7033    6.9548 C   0  0  0  0  0  0  0  0  0  0  0  0
   -5.1357   29.6360    7.1138 C   0  0  0  0  0  0  0  0  0  0  0  0
   -4.5513   29.5885    8.4190 O   0  0  0  0  0  0  0  0  0  0  0  0
   -3.1752   29.4909    8.4178 C   0  0  0  0  0  0  0  0  0  0  0  0
   -2.6120   28.3441    7.9602 N   0  0  0  0  0  0  0  0  0  0  0  0
   -1.2577   28.2916    7.9780 C   0  0  0  0  0  0  0  0  0  0  0  0
   -0.4488   29.3148    8.4535 C   0  0  0  0  0  0  0  0  0  0  0  0
    1.2617   29.1568    8.4447 Cl  0  0  0  0  0  0  0  0  0  0  0  0
   -1.0495   30.4675    8.9458 C   0  0  0  0  0  0  0  0  0  0  0  0
   -2.4393   30.5605    8.9326 C   0  0  0  0  0  0  0  0  0  0  0  0
   -3.1889   31.9888    9.5459 Cl  0  0  0  0  0  0  0  0  0  0  0  0
   -5.9113   23.1710    1.3686 C   0  0  0  0  0  0  0  0  0  0  0  0
   -7.2878   23.4800    0.8526 C   0  0  0  0  0  0  0  0  0  0  0  0
   -7.5116   24.3149   -0.3868 C   0  0  0  0  0  0  0  0  0  0  0  0
   -7.7497   22.8320   -0.4314 C   0  0  0  0  0  0  0  0  0  0  0  0
  1  2  2  0  0  0
  2  3  1  0  0  0
  3 11  1  0  0  0
 11 12  1  0  0  0
 12 13  1  0  0  0
 13 14  1  0  0  0
 14 15  1  0  0  0
 15 16  2  0  0  0
 16 17  1  0  0  0
 17 18  1  0  0  0
 17 19  2  0  0  0
 19 20  1  0  0  0
 20 21  1  0  0  0
  2  4  1  0  0  0
  4  5  1  0  0  0
  5  6  1  0  0  0
  6  7  1  0  0  0
  7 22  1  0  0  0
 22 23  1  0  0  0
 23 24  1  0  0  0
 24 25  1  0  0  0
  7  8  1  0  0  0
  8  9  1  0  0  0
 20 14  2  0  0  0
  9  4  1  0  0  0
 25 23  1  0  0  0
  3 10  1  0  0  0
M  END
> <minimizedAffinity>
-9.13452

$$$$
OCNT-2317300


 27 31  0  0  0  0  0  0  0  0999 V2000
   -4.0196   27.4087    4.8797 N   0  0  0  0  0  0  0  0  0  0  0  0
   -4.6118   27.9903    5.9788 C   0  0  0  0  0  0  0  0  0  0  0  0
   -5.8117   27.9149    6.2381 O   0  0  0  0  0  0  0  0  0  0  0  0
   -3.7625   28.7624    6.7506 N   0  0  0  0  0  0  0  0  0  0  0  0
   -4.3057   29.7044    7.7368 C   0  0  0  0  0  0  0  0  0  0  0  0
   -3.1336   30.6124    8.1711 C   0  0  0  0  0  0  0  0  0  0  0  0
   -3.2051   30.9767    9.6643 C   0  0  0  0  0  0  0  0  0  0  0  0
   -2.7914   32.4412    9.7324 C   0  0  0  0  0  0  0  0  0  0  0  0
   -3.3857   33.0232    8.4623 C   0  0  0  0  0  0  0  0  0  0  0  0
   -3.1038   31.9572    7.4089 C   0  0  0  0  0  0  0  0  0  0  0  0
   -1.9602   29.7418    7.7783 C   0  0  0  0  0  0  0  0  0  0  0  0
   -0.6243   29.8914    8.1316 C   0  0  0  0  0  0  0  0  0  0  0  0
    0.3017   28.9651    7.6522 C   0  0  0  0  0  0  0  0  0  0  0  0
   -0.1132   27.9012    6.8409 C   0  0  0  0  0  0  0  0  0  0  0  0
   -1.4580   27.7565    6.4853 C   0  0  0  0  0  0  0  0  0  0  0  0
   -2.3699   28.6969    6.9398 C   0  0  0  0  0  0  0  0  0  0  0  0
   -3.1729   27.8830    4.5965 H   0  0  0  0  0  0  0  0  0  0  0  0
   -5.7784   21.1063    1.9652 C   0  0  0  0  0  0  0  0  0  0  0  0
   -5.5666   22.5248    2.3177 C   0  0  0  0  0  0  0  0  0  0  0  0
   -4.9038   22.8962    3.4183 N   0  0  0  0  0  0  0  0  0  0  0  0
   -4.9464   24.2496    3.3417 N   0  0  0  0  0  0  0  0  0  0  0  0
   -4.4094   25.1807    4.2278 C   0  0  0  0  0  0  0  0  0  0  0  0
   -4.5431   26.4997    3.9900 C   0  0  0  0  0  0  0  0  0  0  0  0
   -5.2858   26.9035    2.7973 C   0  0  0  0  0  0  0  0  0  0  0  0
   -5.8058   26.0037    1.9389 C   0  0  0  0  0  0  0  0  0  0  0  0
   -5.6434   24.6168    2.1914 C   0  0  0  0  0  0  0  0  0  0  0  0
   -6.0379   23.5465    1.5406 N   0  0  0  0  0  0  0  0  0  0  0  0
 18 19  1  0  0  0
 19 20  2  0  0  0
 20 21  1  0  0  0
 21 22  1  0  0  0
 22 23  2  0  0  0
 23  1  1  0  0  0
  1  2  1  0  0  0
  2  3  2  0  0  0
  2  4  1  0  0  0
  4  5  1  0  0  0
  5  6  1  0  0  0
  6  7  1  0  0  0
  7  8  1  0  0  0
  8  9  1  0  0  0
  9 10  1  0  0  0
  6 11  1  0  0  0
 11 12  2  0  0  0
 12 13  1  0  0  0
 13 14  2  0  0  0
 14 15  1  0  0  0
 15 16  2  0  0  0
 23 24  1  0  0  0
 24 25  2  0  0  0
 25 26  1  0  0  0
 26 27  2  0  0  0
 27 19  1  0  0  0
 26 21  1  0  0  0
 16  4  1  0  0  0
 10  6  1  0  0  0
 16 11  1  0  0  0
  1 17  1  0  0  0
M  END
> <minimizedAffinity>
-11.16947

$$$$
OCNT-2317304


 27 31  0  0  0  0  0  0  0  0999 V2000
   -4.6622   27.9650    4.7367 N   0  0  0  0  0  0  0  0  0  0  0  0
   -3.9084   26.7186    4.9283 C   0  0  0  0  0  0  0  0  0  0  0  0
   -4.8245   25.4971    4.9025 C   0  0  0  0  0  0  0  0  0  0  0  0
   -5.7649   25.4895    3.6830 C   0  0  0  0  0  0  0  0  0  0  0  0
   -5.5598   26.7138    2.7800 C   0  0  0  0  0  0  0  0  0  0  0  0
   -5.6112   27.9954    3.6100 C   0  0  0  0  0  0  0  0  0  0  0  0
   -5.7044   24.1957    2.9089 C   0  0  0  0  0  0  0  0  0  0  0  0
   -5.1088   23.0256    3.3549 C   0  0  0  0  0  0  0  0  0  0  0  0
   -5.2527   22.0669    2.3879 N   0  0  0  0  0  0  0  0  0  0  0  0
   -5.9313   22.5822    1.3220 C   0  0  0  0  0  0  0  0  0  0  0  0
   -6.2346   21.8837    0.2120 N   0  0  0  0  0  0  0  0  0  0  0  0
   -6.9115   22.6162   -0.7004 C   0  0  0  0  0  0  0  0  0  0  0  0
   -7.2752   23.9486   -0.5590 C   0  0  0  0  0  0  0  0  0  0  0  0
   -6.9303   24.6245    0.6140 C   0  0  0  0  0  0  0  0  0  0  0  0
   -6.2292   23.9118    1.6038 C   0  0  0  0  0  0  0  0  0  0  0  0
   -4.9255   21.1136    2.4295 H   0  0  0  0  0  0  0  0  0  0  0  0
   -2.5601   30.2647    7.9550 C   0  0  0  0  0  0  0  0  0  0  0  0
   -2.9552   29.5820    6.8222 C   0  0  0  0  0  0  0  0  0  0  0  0
   -4.3373   29.1848    6.8545 C   0  0  0  0  0  0  0  0  0  0  0  0
   -5.1601   28.4797    5.9453 C   0  0  0  0  0  0  0  0  0  0  0  0
   -6.4637   28.3040    6.2772 N   0  0  0  0  0  0  0  0  0  0  0  0
   -6.9128   28.7840    7.4476 C   0  0  0  0  0  0  0  0  0  0  0  0
   -6.2215   29.4426    8.3800 N   0  0  0  0  0  0  0  0  0  0  0  0
   -4.9379   29.6187    8.0242 C   0  0  0  0  0  0  0  0  0  0  0  0
   -3.8608   30.4452    9.0537 S   0  0  0  0  0  0  0  0  0  0  0  0
   -1.2880   31.9198    9.3323 C   0  0  0  0  0  0  0  0  0  0  0  0
   -1.2082   30.8246    8.2799 C   0  0  0  0  0  0  0  0  0  0  0  0
 26 27  1  0  0  0
 27 17  1  0  0  0
 17 18  2  0  0  0
 18 19  1  0  0  0
 19 20  2  0  0  0
 20  1  1  0  0  0
  1  2  1  0  0  0
  2  3  1  0  0  0
  3  4  1  0  0  0
  4  7  1  0  0  0
  7  8  2  0  0  0
  8  9  1  0  0  0
  9 10  1  0  0  0
 10 11  1  0  0  0
 11 12  2  0  0  0
 12 13  1  0  0  0
 13 14  2  0  0  0
 14 15  1  0  0  0
  4  5  1  0  0  0
  5  6  1  0  0  0
 20 21  1  0  0  0
 21 22  2  0  0  0
 22 23  1  0  0  0
 23 24  2  0  0  0
 24 25  1  0  0  0
 25 17  1  0  0  0
 24 19  1  0  0  0
  6  1  1  0  0  0
 15  7  1  0  0  0
 15 10  2  0  0  0
  9 16  1  0  0  0
M  END
> <minimizedAffinity>
-9.63286

$$$$
