OCNT-2313100


 24 26  0  0  0  0  0  0  0  0999 V2000
   -4.2866   26.9316    4.7712 N   0  0  0  0  0  0  0  0  0  0  0  0
   -4.6363   27.7357    5.2919 H   0  0  0  0  0  0  0  0  0  0  0  0
   -4.3505   27.1010    3.3125 C   0  0  0  0  0  0  0  0  0  0  0  0
   -5.7876   26.7829    2.8484 C   0  0  0  0  0  0  0  0  0  0  0  0
   -5.3820   25.2846    2.7026 C   0  0  0  0  0  0  0  0  0  0  0  0
   -3.9102   25.7954    2.6180 C   0  0  0  0  0  0  0  0  0  0  0  0
   -6.0042   24.4392    1.4944 C   0  0  0  0  0  0  0  0  0  0  0  0
   -6.5629   25.0793    0.3652 C   0  0  0  0  0  0  0  0  0  0  0  0
   -7.1208   24.3724   -0.7031 C   0  0  0  0  0  0  0  0  0  0  0  0
   -7.1344   22.9861   -0.6820 C   0  0  0  0  0  0  0  0  0  0  0  0
   -6.5791   22.3121    0.4002 C   0  0  0  0  0  0  0  0  0  0  0  0
   -6.0034   23.0193    1.4723 C   0  0  0  0  0  0  0  0  0  0  0  0
   -5.4151   22.2304    2.6127 C   0  0  0  0  0  0  0  0  0  0  0  0
   -2.9122   26.6765    5.2128 C   0  0  0  0  0  0  0  0  0  0  0  0
   -2.7613   29.0135    8.1224 C   0  0  0  0  0  0  0  0  0  0  0  0
   -3.3775   28.5522    6.9710 C   0  0  0  0  0  0  0  0  0  0  0  0
   -2.6137   27.4681    6.4481 C   0  0  0  0  0  0  0  0  0  0  0  0
   -1.5383   27.3092    7.3029 C   0  0  0  0  0  0  0  0  0  0  0  0
   -1.6389   28.2374    8.3039 N   0  0  0  0  0  0  0  0  0  0  0  0
   -0.9901   28.3537    9.0733 H   0  0  0  0  0  0  0  0  0  0  0  0
   -3.1153   30.0749    9.0318 C   0  0  0  0  0  0  0  0  0  0  0  0
   -4.2600   30.3342    9.3806 O   0  0  0  0  0  0  0  0  0  0  0  0
   -2.2644   32.0209   10.0079 C   0  0  0  0  0  0  0  0  0  0  0  0
   -1.9995   30.7389    9.4407 O   0  0  0  0  0  0  0  0  0  0  0  0
 23 24  1  0  0  0
 24 21  1  0  0  0
 21 22  2  0  0  0
 21 15  1  0  0  0
 15 16  2  0  0  0
 16 17  1  0  0  0
 17 14  1  0  0  0
 14  1  1  0  0  0
  1  3  1  0  0  0
  3  4  1  0  0  0
  4  5  1  0  0  0
  5  7  1  0  0  0
  7  8  2  0  0  0
  8  9  1  0  0  0
  9 10  2  0  0  0
 10 11  1  0  0  0
 11 12  2  0  0  0
 12 13  1  0  0  0
  5  6  1  0  0  0
 17 18  2  0  0  0
 18 19  1  0  0  0
 19 15  1  0  0  0
  6  3  1  0  0  0
 12  7  1  0  0  0
  1  2  1  0  0  0
 19 20  1  0  0  0
M  END
> <minimizedAffinity>
-8.69603

$$$$
OCNT-2313101


 25 27  0  0  0  0  0  0  0  0999 V2000
   -3.7919   30.7903    7.8516 C   0  0  0  0  0  0  0  0  0  0  0  0
   -4.2051   31.6082    9.1104 C   0  0  0  0  0  0  0  0  0  0  0  0
   -3.1128   32.5200    9.6486 C   0  0  0  0  0  0  0  0  0  0  0  0
   -1.9091   31.6888   10.0585 C   0  0  0  0  0  0  0  0  0  0  0  0
   -1.4524   30.7594    8.9643 C   0  0  0  0  0  0  0  0  0  0  0  0
   -0.1219   30.3043    9.0027 C   0  0  0  0  0  0  0  0  0  0  0  0
    0.3678   29.4378    8.0295 C   0  0  0  0  0  0  0  0  0  0  0  0
   -0.4676   29.0098    7.0070 C   0  0  0  0  0  0  0  0  0  0  0  0
   -1.7943   29.4416    6.9649 C   0  0  0  0  0  0  0  0  0  0  0  0
   -2.3217   30.3102    7.9471 C   0  0  0  0  0  0  0  0  0  0  0  0
   -4.5817   32.9252    6.7660 O   0  0  0  0  0  0  0  0  0  0  0  0
   -3.9339   31.6716    6.5569 C   0  0  0  0  0  0  0  0  0  0  0  0
   -4.0720   33.4029    7.4463 H   0  0  0  0  0  0  0  0  0  0  0  0
   -4.6709   29.5902    7.7872 N   0  0  0  0  0  0  0  0  0  0  0  0
   -4.1798   28.8208    7.3403 H   0  0  0  0  0  0  0  0  0  0  0  0
   -5.9633   29.7587    7.1315 C   0  0  0  0  0  0  0  0  0  0  0  0
   -5.9723   29.0254    5.8095 C   0  0  0  0  0  0  0  0  0  0  0  0
   -6.1168   29.7356    4.6082 C   0  0  0  0  0  0  0  0  0  0  0  0
   -6.1392   29.0603    3.3911 C   0  0  0  0  0  0  0  0  0  0  0  0
   -6.2755   29.8051    2.2567 O   0  0  0  0  0  0  0  0  0  0  0  0
   -6.0272   27.6757    3.3399 C   0  0  0  0  0  0  0  0  0  0  0  0
   -5.8943   26.9656    4.5317 C   0  0  0  0  0  0  0  0  0  0  0  0
   -5.7618   25.2492    4.4891 Cl  0  0  0  0  0  0  0  0  0  0  0  0
   -5.8684   27.6276    5.7610 C   0  0  0  0  0  0  0  0  0  0  0  0
   -6.3011   29.2109    1.4887 H   0  0  0  0  0  0  0  0  0  0  0  0
 11 12  1  0  0  0
 12  1  1  0  0  0
  1 14  1  0  0  0
 14 16  1  0  0  0
 16 17  1  0  0  0
 17 18  1  0  0  0
 18 19  2  0  0  0
 19 20  1  0  0  0
 19 21  1  0  0  0
 21 22  2  0  0  0
 22 23  1  0  0  0
 22 24  1  0  0  0
  1  2  1  0  0  0
  2  3  1  0  0  0
  3  4  1  0  0  0
  4  5  1  0  0  0
  5  6  2  0  0  0
  6  7  1  0  0  0
  7  8  2  0  0  0
  8  9  1  0  0  0
  9 10  2  0  0  0
 10  1  1  0  0  0
 24 17  2  0  0  0
 10  5  1  0  0  0
 11 13  1  0  0  0
 14 15  1  0  0  0
 20 25  1  0  0  0
M  END
> <minimizedAffinity>
-9.36397

$$$$
OCNT-2313106


 28 31  0  0  0  0  0  0  0  0999 V2000
   -4.7568   27.4801    3.8210 C   0  0  0  0  0  0  0  0  0  0  0  0
   -3.5130   25.7367    1.9787 O   0  0  0  0  0  0  0  0  0  0  0  0
   -4.7086   25.6116    2.2136 C   0  0  0  0  0  0  0  0  0  0  0  0
   -5.3744   26.3229    3.1888 N   0  0  0  0  0  0  0  0  0  0  0  0
   -6.3813   26.2620    3.2393 H   0  0  0  0  0  0  0  0  0  0  0  0
   -5.5408   24.6638    1.4314 C   0  0  0  0  0  0  0  0  0  0  0  0
   -6.3417   25.1150    0.3700 C   0  0  0  0  0  0  0  0  0  0  0  0
   -7.1054   24.2089   -0.3840 C   0  0  0  0  0  0  0  0  0  0  0  0
   -7.0753   22.8429   -0.0968 C   0  0  0  0  0  0  0  0  0  0  0  0
   -6.2807   22.4051    0.9505 C   0  0  0  0  0  0  0  0  0  0  0  0
   -5.5158   23.3022    1.7089 C   0  0  0  0  0  0  0  0  0  0  0  0
   -4.7167   22.5657    2.7416 C   0  0  0  0  0  0  0  0  0  0  0  0
   -5.4555   21.2210    2.7948 C   0  0  0  0  0  0  0  0  0  0  0  0
   -6.0560   20.9953    1.4018 C   0  0  0  0  0  0  0  0  0  0  0  0
   -4.7593   27.3677    5.3771 C   0  0  0  0  0  0  0  0  0  0  0  0
   -5.6216   28.4392    6.0407 C   0  0  0  0  0  0  0  0  0  0  0  0
   -6.5549   29.1524    5.2661 C   0  0  0  0  0  0  0  0  0  0  0  0
   -7.3623   30.1396    5.8364 C   0  0  0  0  0  0  0  0  0  0  0  0
   -7.2513   30.4320    7.1937 C   0  0  0  0  0  0  0  0  0  0  0  0
   -6.3320   29.7358    7.9729 C   0  0  0  0  0  0  0  0  0  0  0  0
   -6.1938   30.0906    9.6516 Cl  0  0  0  0  0  0  0  0  0  0  0  0
   -5.5212   28.7496    7.4072 C   0  0  0  0  0  0  0  0  0  0  0  0
   -3.3778   27.2266    5.9167 N   0  0  0  0  0  0  0  0  0  0  0  0
   -2.8182   28.5049    6.3981 C   0  0  0  0  0  0  0  0  0  0  0  0
   -1.4566   28.2832    7.0773 C   0  0  0  0  0  0  0  0  0  0  0  0
   -0.5270   27.6489    6.1892 O   0  0  0  0  0  0  0  0  0  0  0  0
   -1.0518   26.3955    5.7342 C   0  0  0  0  0  0  0  0  0  0  0  0
   -2.4035   26.5795    5.0216 C   0  0  0  0  0  0  0  0  0  0  0  0
  2  3  2  0  0  0
  3  4  1  0  0  0
  4  1  1  0  0  0
  1 15  1  0  0  0
 15 16  1  0  0  0
 16 17  2  0  0  0
 17 18  1  0  0  0
 18 19  2  0  0  0
 19 20  1  0  0  0
 20 21  1  0  0  0
 20 22  2  0  0  0
 15 23  1  0  0  0
 23 24  1  0  0  0
 24 25  1  0  0  0
 25 26  1  0  0  0
 26 27  1  0  0  0
 27 28  1  0  0  0
  3  6  1  0  0  0
  6  7  1  0  0  0
  7  8  2  0  0  0
  8  9  1  0  0  0
  9 10  2  0  0  0
 10 11  1  0  0  0
 11 12  1  0  0  0
 12 13  1  0  0  0
 13 14  1  0  0  0
 22 16  1  0  0  0
 28 23  1  0  0  0
 11  6  2  0  0  0
 14 10  1  0  0  0
  4  5  1  0  0  0
M  END
> <minimizedAffinity>
-9.92367

$$$$
OCNT-2313107


 24 26  0  0  0  0  0  0  0  0999 V2000
   -4.0146   26.5305    5.1165 C   0  0  0  0  0  0  0  0  0  0  0  0
   -4.1746   28.6778    6.5317 C   0  0  0  0  0  0  0  0  0  0  0  0
   -4.6852   27.7848    5.5943 C   0  0  0  0  0  0  0  0  0  0  0  0
   -5.9689   28.2259    5.1175 C   0  0  0  0  0  0  0  0  0  0  0  0
   -6.3796   29.4029    5.6989 C   0  0  0  0  0  0  0  0  0  0  0  0
   -5.2386   29.9899    6.8208 S   0  0  0  0  0  0  0  0  0  0  0  0
   -2.4744   27.1954    8.2085 N   0  0  0  0  0  0  0  0  0  0  0  0
   -2.6875   28.7097    7.5071 S   0  0  0  0  0  0  0  0  0  0  0  0
   -2.9535   29.6107    8.6052 O   0  0  0  0  0  0  0  0  0  0  0  0
   -1.5896   28.9008    6.5888 O   0  0  0  0  0  0  0  0  0  0  0  0
   -1.6837   27.2364    8.8500 H   0  0  0  0  0  0  0  0  0  0  0  0
   -3.3455   26.9471    8.6968 H   0  0  0  0  0  0  0  0  0  0  0  0
   -3.3522   26.8246    3.8406 N   0  0  0  0  0  0  0  0  0  0  0  0
   -2.3414   26.7277    3.9756 H   0  0  0  0  0  0  0  0  0  0  0  0
   -3.7753   25.8935    2.7812 C   0  0  0  0  0  0  0  0  0  0  0  0
   -3.8508   24.4380    3.3122 C   0  0  0  0  0  0  0  0  0  0  0  0
   -4.8252   23.8228    2.3550 C   0  0  0  0  0  0  0  0  0  0  0  0
   -5.0562   22.4770    2.1226 C   0  0  0  0  0  0  0  0  0  0  0  0
   -6.0508   22.1247    1.2063 C   0  0  0  0  0  0  0  0  0  0  0  0
   -6.7991   23.1168    0.5545 C   0  0  0  0  0  0  0  0  0  0  0  0
   -8.0253   22.6552   -0.5632 Cl  0  0  0  0  0  0  0  0  0  0  0  0
   -6.5702   24.4715    0.8021 C   0  0  0  0  0  0  0  0  0  0  0  0
   -5.5732   24.8094    1.7026 C   0  0  0  0  0  0  0  0  0  0  0  0
   -5.1684   26.1764    2.1600 C   0  0  0  0  0  0  0  0  0  0  0  0
  7  8  1  0  0  0
  8  9  2  0  0  0
  8 10  2  0  0  0
  8  2  1  0  0  0
  2  3  2  0  0  0
  3  1  1  0  0  0
  1 13  1  0  0  0
 13 15  1  0  0  0
 15 16  1  0  0  0
 16 17  1  0  0  0
 17 18  1  0  0  0
 18 19  2  0  0  0
 19 20  1  0  0  0
 20 21  1  0  0  0
 20 22  2  0  0  0
 22 23  1  0  0  0
 23 24  1  0  0  0
  3  4  1  0  0  0
  4  5  2  0  0  0
  5  6  1  0  0  0
  6  2  1  0  0  0
 24 15  1  0  0  0
 23 17  2  0  0  0
  7 11  1  0  0  0
  7 12  1  0  0  0
 13 14  1  0  0  0
M  END
> <minimizedAffinity>
-8.50579

$$$$
OCNT-2313117


 26 28  0  0  0  0  0  0  0  0999 V2000
   -4.0280   27.5587    5.3620 C   0  0  0  0  0  0  0  0  0  0  0  0
   -3.9794   26.6535    4.3240 C   0  0  0  0  0  0  0  0  0  0  0  0
   -5.3246   26.3096    4.0175 C   0  0  0  0  0  0  0  0  0  0  0  0
   -6.1633   26.9689    4.8327 N   0  0  0  0  0  0  0  0  0  0  0  0
   -5.3693   27.7241    5.6121 N   0  0  0  0  0  0  0  0  0  0  0  0
   -5.8201   25.3813    2.9921 C   0  0  0  0  0  0  0  0  0  0  0  0
   -6.3924   24.1473    3.3394 C   0  0  0  0  0  0  0  0  0  0  0  0
   -6.8608   23.2718    2.3524 C   0  0  0  0  0  0  0  0  0  0  0  0
   -6.7611   23.6224    1.0086 C   0  0  0  0  0  0  0  0  0  0  0  0
   -7.3379   22.5454   -0.2022 Cl  0  0  0  0  0  0  0  0  0  0  0  0
   -6.1969   24.8401    0.6417 C   0  0  0  0  0  0  0  0  0  0  0  0
   -5.7293   25.7133    1.6295 C   0  0  0  0  0  0  0  0  0  0  0  0
   -2.1840   27.5743    6.9667 C   0  0  0  0  0  0  0  0  0  0  0  0
   -2.2325   26.3749    7.2244 O   0  0  0  0  0  0  0  0  0  0  0  0
   -3.0308   28.2131    6.0716 N   0  0  0  0  0  0  0  0  0  0  0  0
   -2.9154   29.2056    5.9324 H   0  0  0  0  0  0  0  0  0  0  0  0
   -2.8282   29.9519    8.8360 C   0  0  0  0  0  0  0  0  0  0  0  0
   -1.5131   29.5088    8.4354 N   0  0  0  0  0  0  0  0  0  0  0  0
   -0.3441   30.0912    8.8327 C   0  0  0  0  0  0  0  0  0  0  0  0
    0.6957   29.4829    8.3163 N   0  0  0  0  0  0  0  0  0  0  0  0
    0.1745   28.4686    7.5578 C   0  0  0  0  0  0  0  0  0  0  0  0
   -1.2113   28.4477    7.6011 C   0  0  0  0  0  0  0  0  0  0  0  0
   -5.9916   28.5662    6.6120 C   0  0  0  0  0  0  0  0  0  0  0  0
   -6.9911   29.5282    5.9905 C   0  0  0  0  0  0  0  0  0  0  0  0
   -6.4953   29.9787    4.7329 O   0  0  0  0  0  0  0  0  0  0  0  0
   -7.2025   30.5054    4.3184 H   0  0  0  0  0  0  0  0  0  0  0  0
 17 18  1  0  0  0
 18 19  1  0  0  0
 19 20  2  0  0  0
 20 21  1  0  0  0
 21 22  2  0  0  0
 22 13  1  0  0  0
 13 14  2  0  0  0
 13 15  1  0  0  0
 15  1  1  0  0  0
  1  2  2  0  0  0
  2  3  1  0  0  0
  3  6  1  0  0  0
  6  7  1  0  0  0
  7  8  2  0  0  0
  8  9  1  0  0  0
  9 10  1  0  0  0
  9 11  2  0  0  0
 11 12  1  0  0  0
  3  4  2  0  0  0
  4  5  1  0  0  0
  5 23  1  0  0  0
 23 24  1  0  0  0
 24 25  1  0  0  0
 22 18  1  0  0  0
  5  1  1  0  0  0
 12  6  2  0  0  0
 15 16  1  0  0  0
 25 26  1  0  0  0
M  END
> <minimizedAffinity>
-8.70373

$$$$
OCNT-2313122


 30 32  0  0  0  0  0  0  0  0999 V2000
   -3.2330   27.6472    5.9794 O   0  0  0  0  0  0  0  0  0  0  0  0
   -4.3635   28.1235    6.0226 C   0  0  0  0  0  0  0  0  0  0  0  0
   -4.8897   28.7178    7.1529 N   0  0  0  0  0  0  0  0  0  0  0  0
   -5.7112   29.2917    6.9872 H   0  0  0  0  0  0  0  0  0  0  0  0
   -5.3495   28.1186    4.8269 C   0  0  0  0  0  0  0  0  0  0  0  0
   -6.5842   28.7679    5.1605 O   0  0  0  0  0  0  0  0  0  0  0  0
   -7.2040   28.0669    5.4309 H   0  0  0  0  0  0  0  0  0  0  0  0
   -5.6631   26.7315    4.2965 C   0  0  0  0  0  0  0  0  0  0  0  0
   -6.2273   25.7358    5.1082 C   0  0  0  0  0  0  0  0  0  0  0  0
   -6.5470   24.4842    4.5806 C   0  0  0  0  0  0  0  0  0  0  0  0
   -6.3179   24.2123    3.2326 C   0  0  0  0  0  0  0  0  0  0  0  0
   -5.7620   25.1896    2.3956 C   0  0  0  0  0  0  0  0  0  0  0  0
   -5.4513   26.4493    2.9357 C   0  0  0  0  0  0  0  0  0  0  0  0
   -5.5412   24.9078    0.9293 C   0  0  0  0  0  0  0  0  0  0  0  0
   -6.2644   25.7238    0.1125 F   0  0  0  0  0  0  0  0  0  0  0  0
   -5.8911   23.6359    0.5910 F   0  0  0  0  0  0  0  0  0  0  0  0
   -4.2426   25.0532    0.5441 F   0  0  0  0  0  0  0  0  0  0  0  0
   -4.0500   29.0305    8.2816 C   0  0  0  0  0  0  0  0  0  0  0  0
   -3.9397   30.5233    8.4821 C   0  0  0  0  0  0  0  0  0  0  0  0
   -5.1139   31.2511    8.7524 C   0  0  0  0  0  0  0  0  0  0  0  0
   -5.0774   32.6341    8.9253 C   0  0  0  0  0  0  0  0  0  0  0  0
   -3.8691   33.3135    8.8230 C   0  0  0  0  0  0  0  0  0  0  0  0
   -2.6975   32.6096    8.5435 C   0  0  0  0  0  0  0  0  0  0  0  0
   -2.7101   31.2135    8.3659 C   0  0  0  0  0  0  0  0  0  0  0  0
   -1.4466   30.5307    8.0570 C   0  0  0  0  0  0  0  0  0  0  0  0
   -1.0892   30.2502    6.7342 C   0  0  0  0  0  0  0  0  0  0  0  0
    0.1091   29.5994    6.4909 C   0  0  0  0  0  0  0  0  0  0  0  0
    0.9664   29.2200    7.4611 N   0  0  0  0  0  0  0  0  0  0  0  0
    0.6114   29.5076    8.7309 C   0  0  0  0  0  0  0  0  0  0  0  0
   -0.5652   30.1534    9.0744 C   0  0  0  0  0  0  0  0  0  0  0  0
  1  2  2  0  0  0
  2  3  1  0  0  0
  3 18  1  0  0  0
 18 19  1  0  0  0
 19 20  2  0  0  0
 20 21  1  0  0  0
 21 22  2  0  0  0
 22 23  1  0  0  0
 23 24  2  0  0  0
 24 25  1  0  0  0
 25 26  2  0  0  0
 26 27  1  0  0  0
 27 28  2  0  0  0
 28 29  1  0  0  0
 29 30  2  0  0  0
  2  5  1  0  0  0
  5  6  1  0  0  0
  5  8  1  0  0  0
  8  9  2  0  0  0
  9 10  1  0  0  0
 10 11  2  0  0  0
 11 12  1  0  0  0
 12 14  1  0  0  0
 14 15  1  0  0  0
 14 16  1  0  0  0
 14 17  1  0  0  0
 12 13  2  0  0  0
 24 19  1  0  0  0
 30 25  1  0  0  0
 13  8  1  0  0  0
  3  4  1  0  0  0
  6  7  1  0  0  0
M  END
> <minimizedAffinity>
-10.53763

$$$$
OCNT-2313124


 27 29  0  0  0  0  0  0  0  0999 V2000
   -4.6749   31.7745    7.1342 N   0  0  0  0  0  0  0  0  0  0  0  0
   -4.8787   30.4475    7.4031 C   0  0  0  0  0  0  0  0  0  0  0  0
   -4.8134   29.9404    8.5134 O   0  0  0  0  0  0  0  0  0  0  0  0
   -5.1730   29.7512    6.2621 N   0  0  0  0  0  0  0  0  0  0  0  0
   -5.1210   32.1073    6.2925 H   0  0  0  0  0  0  0  0  0  0  0  0
   -4.7642   30.1175    5.4157 H   0  0  0  0  0  0  0  0  0  0  0  0
   -5.3475   28.3125    6.3330 C   0  0  0  0  0  0  0  0  0  0  0  0
   -6.2835   27.7551    5.2445 C   0  0  0  0  0  0  0  0  0  0  0  0
   -5.4831   27.3162    4.1155 O   0  0  0  0  0  0  0  0  0  0  0  0
   -4.2426   27.0836    4.6604 C   0  0  0  0  0  0  0  0  0  0  0  0
   -3.2119   26.4135    4.0120 C   0  0  0  0  0  0  0  0  0  0  0  0
   -3.3958   25.8857    2.6194 C   0  0  0  0  0  0  0  0  0  0  0  0
   -1.9882   26.2816    4.7055 C   0  0  0  0  0  0  0  0  0  0  0  0
   -0.8136   25.5726    4.0858 C   0  0  0  0  0  0  0  0  0  0  0  0
   -1.8598   26.8024    6.0137 C   0  0  0  0  0  0  0  0  0  0  0  0
   -2.9152   27.4722    6.6353 C   0  0  0  0  0  0  0  0  0  0  0  0
   -4.1019   27.6069    5.9387 C   0  0  0  0  0  0  0  0  0  0  0  0
   -4.4254   32.7427    8.2004 C   0  0  0  0  0  0  0  0  0  0  0  0
   -5.1219   34.0815    7.9436 C   0  0  0  0  0  0  0  0  0  0  0  0
   -2.9277   32.8867    8.5192 C   0  0  0  0  0  0  0  0  0  0  0  0
    0.4169   29.0012    8.0430 C   0  0  0  0  0  0  0  0  0  0  0  0
   -0.5386   30.1214    7.9051 C   0  0  0  0  0  0  0  0  0  0  0  0
   -1.2122   30.8811    8.8350 C   0  0  0  0  0  0  0  0  0  0  0  0
   -1.9919   31.7966    8.0863 C   0  0  0  0  0  0  0  0  0  0  0  0
   -1.8023   31.6162    6.7706 N   0  0  0  0  0  0  0  0  0  0  0  0
   -0.9310   30.6016    6.6892 N   0  0  0  0  0  0  0  0  0  0  0  0
   -0.6460   30.2875    5.7674 H   0  0  0  0  0  0  0  0  0  0  0  0
 21 22  1  0  0  0
 22 23  2  0  0  0
 23 24  1  0  0  0
 24 20  1  0  0  0
 20 18  1  0  0  0
 18 19  1  0  0  0
 18  1  1  0  0  0
  1  2  1  0  0  0
  2  3  2  0  0  0
  2  4  1  0  0  0
  4  7  1  0  0  0
  7  8  1  0  0  0
  8  9  1  0  0  0
  9 10  1  0  0  0
 10 11  1  0  0  0
 11 12  1  0  0  0
 11 13  2  0  0  0
 13 14  1  0  0  0
 13 15  1  0  0  0
 15 16  2  0  0  0
 16 17  1  0  0  0
 24 25  2  0  0  0
 25 26  1  0  0  0
 26 22  1  0  0  0
 17  7  1  0  0  0
 17 10  2  0  0  0
  1  5  1  0  0  0
  4  6  1  0  0  0
 26 27  1  0  0  0
M  END
> <minimizedAffinity>
-8.82370

$$$$
OCNT-2313143


 27 30  0  0  0  0  0  0  0  0999 V2000
   -5.6434   31.6452    7.9921 C   0  0  0  0  0  0  0  0  0  0  0  0
   -2.0645   30.3461    8.3201 C   0  0  0  0  0  0  0  0  0  0  0  0
   -1.5752   31.1864    9.3293 C   0  0  0  0  0  0  0  0  0  0  0  0
   -2.3909   32.1675    9.8966 C   0  0  0  0  0  0  0  0  0  0  0  0
   -3.7058   32.3217    9.4587 C   0  0  0  0  0  0  0  0  0  0  0  0
   -4.2152   31.5034    8.4423 C   0  0  0  0  0  0  0  0  0  0  0  0
   -3.3890   30.5129    7.8861 C   0  0  0  0  0  0  0  0  0  0  0  0
   -0.5218   26.5479    5.5768 C   0  0  0  0  0  0  0  0  0  0  0  0
   -0.6190   27.6757    6.5247 C   0  0  0  0  0  0  0  0  0  0  0  0
   -1.6640   28.4279    6.7864 N   0  0  0  0  0  0  0  0  0  0  0  0
   -1.2078   29.3165    7.7383 C   0  0  0  0  0  0  0  0  0  0  0  0
    0.0844   29.1389    8.0615 N   0  0  0  0  0  0  0  0  0  0  0  0
    0.4277   28.0996    7.2880 N   0  0  0  0  0  0  0  0  0  0  0  0
    1.3741   27.7393    7.3313 H   0  0  0  0  0  0  0  0  0  0  0  0
   -5.8828   30.8573    6.8090 N   0  0  0  0  0  0  0  0  0  0  0  0
   -6.3730   29.5830    6.8989 C   0  0  0  0  0  0  0  0  0  0  0  0
   -6.5791   28.9796    7.9416 O   0  0  0  0  0  0  0  0  0  0  0  0
   -5.8783   31.3206    5.9103 H   0  0  0  0  0  0  0  0  0  0  0  0
   -6.6916   28.9584    5.5935 C   0  0  0  0  0  0  0  0  0  0  0  0
   -6.2672   29.5768    4.2874 C   0  0  0  0  0  0  0  0  0  0  0  0
   -5.5577   28.3428    4.7880 C   0  0  0  0  0  0  0  0  0  0  0  0
   -5.7691   27.0042    4.1250 C   0  0  0  0  0  0  0  0  0  0  0  0
   -5.6387   26.8340    2.7420 C   0  0  0  0  0  0  0  0  0  0  0  0
   -5.8329   25.5772    2.1877 C   0  0  0  0  0  0  0  0  0  0  0  0
   -6.1406   24.4791    2.9069 N   0  0  0  0  0  0  0  0  0  0  0  0
   -6.2505   24.6476    4.2402 C   0  0  0  0  0  0  0  0  0  0  0  0
   -6.0744   25.8650    4.8801 C   0  0  0  0  0  0  0  0  0  0  0  0
  8  9  1  0  0  0
  9 10  2  0  0  0
 10 11  1  0  0  0
 11  2  1  0  0  0
  2  3  1  0  0  0
  3  4  2  0  0  0
  4  5  1  0  0  0
  5  6  2  0  0  0
  6  1  1  0  0  0
  1 15  1  0  0  0
 15 16  1  0  0  0
 16 17  2  0  0  0
 16 19  1  0  0  0
 19 20  1  0  0  0
 20 21  1  0  0  0
 21 22  1  0  0  0
 22 23  2  0  0  0
 23 24  1  0  0  0
 24 25  2  0  0  0
 25 26  1  0  0  0
 26 27  2  0  0  0
  6  7  1  0  0  0
 11 12  2  0  0  0
 12 13  1  0  0  0
 13  9  1  0  0  0
  7  2  2  0  0  0
 21 19  1  0  0  0
 27 22  1  0  0  0
 15 18  1  0  0  0
 13 14  1  0  0  0
M  END
> <minimizedAffinity>
-9.79310

$$$$
OCNT-2313155


 27 31  0  0  0  0  0  0  0  0999 V2000
   -4.2517   26.6351    4.4142 N   0  0  0  0  0  0  0  0  0  0  0  0
   -5.1355   25.6791    5.1014 C   0  0  0  0  0  0  0  0  0  0  0  0
   -6.0522   25.0152    4.0798 C   0  0  0  0  0  0  0  0  0  0  0  0
   -5.2200   24.1079    3.1446 C   0  0  0  0  0  0  0  0  0  0  0  0
   -3.7891   24.6744    2.9385 C   0  0  0  0  0  0  0  0  0  0  0  0
   -3.6974   26.1847    3.1268 C   0  0  0  0  0  0  0  0  0  0  0  0
   -4.9851   22.8582    3.8515 O   0  0  0  0  0  0  0  0  0  0  0  0
   -6.0114   21.8831    3.7087 C   0  0  0  0  0  0  0  0  0  0  0  0
   -6.0609   21.4232    2.2644 C   0  0  0  0  0  0  0  0  0  0  0  0
   -6.3274   22.6088    1.3790 C   0  0  0  0  0  0  0  0  0  0  0  0
   -6.9383   22.4163    0.1305 C   0  0  0  0  0  0  0  0  0  0  0  0
   -7.1958   23.5008   -0.7024 C   0  0  0  0  0  0  0  0  0  0  0  0
   -6.8421   24.7818   -0.2952 C   0  0  0  0  0  0  0  0  0  0  0  0
   -6.2184   24.9776    0.9394 C   0  0  0  0  0  0  0  0  0  0  0  0
   -5.9343   23.8973    1.7949 C   0  0  0  0  0  0  0  0  0  0  0  0
   -4.4813   29.0850    6.4891 C   0  0  0  0  0  0  0  0  0  0  0  0
   -4.0160   29.8885    7.5178 C   0  0  0  0  0  0  0  0  0  0  0  0
   -2.7574   29.4676    7.8552 N   0  0  0  0  0  0  0  0  0  0  0  0
   -2.3952   28.4118    7.0683 C   0  0  0  0  0  0  0  0  0  0  0  0
   -1.2129   27.7850    7.1451 N   0  0  0  0  0  0  0  0  0  0  0  0
   -1.1321   26.7925    6.2455 C   0  0  0  0  0  0  0  0  0  0  0  0
   -2.0609   26.3994    5.3539 N   0  0  0  0  0  0  0  0  0  0  0  0
   -3.2515   27.0525    5.3148 C   0  0  0  0  0  0  0  0  0  0  0  0
   -3.4458   28.1273    6.2085 C   0  0  0  0  0  0  0  0  0  0  0  0
   -2.1618   29.8660    8.5660 H   0  0  0  0  0  0  0  0  0  0  0  0
   -6.9361   28.5826    6.5956 C   0  0  0  0  0  0  0  0  0  0  0  0
   -5.8035   29.2182    5.8037 C   0  0  0  0  0  0  0  0  0  0  0  0
 26 27  1  0  0  0
 27 16  1  0  0  0
 16 17  2  0  0  0
 17 18  1  0  0  0
 18 19  1  0  0  0
 19 20  2  0  0  0
 20 21  1  0  0  0
 21 22  2  0  0  0
 22 23  1  0  0  0
 23  1  1  0  0  0
  1  2  1  0  0  0
  2  3  1  0  0  0
  3  4  1  0  0  0
  4  5  1  0  0  0
  5  6  1  0  0  0
  4  7  1  0  0  0
  7  8  1  0  0  0
  8  9  1  0  0  0
  9 10  1  0  0  0
 10 11  2  0  0  0
 11 12  1  0  0  0
 12 13  2  0  0  0
 13 14  1  0  0  0
 14 15  2  0  0  0
 23 24  2  0  0  0
 24 16  1  0  0  0
 24 19  1  0  0  0
  6  1  1  0  0  0
 15 10  1  0  0  0
 15  4  1  0  0  0
 18 25  1  0  0  0
M  END
> <minimizedAffinity>
-10.80516

$$$$
OCNT-2313159


 26 29  0  0  0  0  0  0  0  0999 V2000
   -5.4460   28.7049    5.4242 N   0  0  0  0  0  0  0  0  0  0  0  0
   -6.1594   27.9275    4.3683 C   0  0  0  0  0  0  0  0  0  0  0  0
   -5.7010   26.4721    4.5515 C   0  0  0  0  0  0  0  0  0  0  0  0
   -4.2484   26.6458    5.0051 C   0  0  0  0  0  0  0  0  0  0  0  0
   -3.4650   25.4258    5.5799 C   0  0  0  0  0  0  0  0  0  0  0  0
   -2.1831   26.0366    4.9783 C   0  0  0  0  0  0  0  0  0  0  0  0
   -3.0815   26.7805    3.9682 C   0  0  0  0  0  0  0  0  0  0  0  0
   -4.3467   27.8519    5.9606 C   0  0  0  0  0  0  0  0  0  0  0  0
   -5.8985   25.5366    3.3815 C   0  0  0  0  0  0  0  0  0  0  0  0
   -5.6865   26.0252    2.0805 C   0  0  0  0  0  0  0  0  0  0  0  0
   -5.8523   25.2027    0.9644 C   0  0  0  0  0  0  0  0  0  0  0  0
   -6.2345   23.8753    1.1290 C   0  0  0  0  0  0  0  0  0  0  0  0
   -6.4523   23.3731    2.4086 C   0  0  0  0  0  0  0  0  0  0  0  0
   -6.2860   24.1962    3.5260 C   0  0  0  0  0  0  0  0  0  0  0  0
   -6.4084   29.4524    6.6011 S   0  0  0  0  0  0  0  0  0  0  0  0
   -6.6580   28.4845    7.6477 O   0  0  0  0  0  0  0  0  0  0  0  0
   -7.4997   30.1287    5.9295 O   0  0  0  0  0  0  0  0  0  0  0  0
   -6.5378   30.7804    9.7615 C   0  0  0  0  0  0  0  0  0  0  0  0
   -5.6359   31.1135    8.6441 C   0  0  0  0  0  0  0  0  0  0  0  0
   -5.4916   30.6681    7.3529 C   0  0  0  0  0  0  0  0  0  0  0  0
   -4.4194   31.4105    6.8269 C   0  0  0  0  0  0  0  0  0  0  0  0
   -3.9056   31.2904    5.5876 N   0  0  0  0  0  0  0  0  0  0  0  0
   -3.9488   32.2697    7.7358 N   0  0  0  0  0  0  0  0  0  0  0  0
   -4.7123   32.0845    8.8737 O   0  0  0  0  0  0  0  0  0  0  0  0
   -4.4697   30.8600    4.8527 H   0  0  0  0  0  0  0  0  0  0  0  0
   -3.3288   32.0554    5.2511 H   0  0  0  0  0  0  0  0  0  0  0  0
 18 19  1  0  0  0
 19 20  2  0  0  0
 20 15  1  0  0  0
 15 16  2  0  0  0
 15 17  2  0  0  0
 15  1  1  0  0  0
  1  2  1  0  0  0
  2  3  1  0  0  0
  3  9  1  0  0  0
  9 10  2  0  0  0
 10 11  1  0  0  0
 11 12  2  0  0  0
 12 13  1  0  0  0
 13 14  2  0  0  0
  3  4  1  0  0  0
  4  5  1  0  0  0
  5  6  1  0  0  0
  6  7  1  0  0  0
  4  8  1  0  0  0
 20 21  1  0  0  0
 21 22  1  0  0  0
 21 23  2  0  0  0
 23 24  1  0  0  0
 24 19  1  0  0  0
  8  1  1  0  0  0
 14  9  1  0  0  0
  7  4  1  0  0  0
 22 25  1  0  0  0
 22 26  1  0  0  0
M  END
> <minimizedAffinity>
-8.81081

$$$$
OCNT-2313161


 23 25  0  0  0  0  0  0  0  0999 V2000
   -2.0162   27.8582    7.2516 N   0  0  0  0  0  0  0  0  0  0  0  0
   -2.4845   28.7608    7.2742 H   0  0  0  0  0  0  0  0  0  0  0  0
   -2.2213   27.2073    6.0368 C   0  0  0  0  0  0  0  0  0  0  0  0
   -1.2322   26.4487    5.4797 N   0  0  0  0  0  0  0  0  0  0  0  0
   -1.4473   25.7953    4.3127 C   0  0  0  0  0  0  0  0  0  0  0  0
   -2.6280   25.8156    3.5858 C   0  0  0  0  0  0  0  0  0  0  0  0
   -3.6334   26.5885    4.1577 C   0  0  0  0  0  0  0  0  0  0  0  0
   -3.4593   27.2742    5.3560 C   0  0  0  0  0  0  0  0  0  0  0  0
   -4.6183   27.9445    5.6690 N   0  0  0  0  0  0  0  0  0  0  0  0
   -5.5081   27.6999    4.7158 N   0  0  0  0  0  0  0  0  0  0  0  0
   -4.9215   26.8930    3.8126 N   0  0  0  0  0  0  0  0  0  0  0  0
   -5.6700   26.4614    2.6626 C   0  0  0  0  0  0  0  0  0  0  0  0
   -0.6599   27.8559    7.8005 C   0  0  0  0  0  0  0  0  0  0  0  0
    0.0452   29.2305    7.6317 C   0  0  0  0  0  0  0  0  0  0  0  0
    1.2858   29.3159    8.5507 C   0  0  0  0  0  0  0  0  0  0  0  0
    0.5357   29.4069    6.1778 C   0  0  0  0  0  0  0  0  0  0  0  0
   -3.9316   31.8289    6.4787 C   0  0  0  0  0  0  0  0  0  0  0  0
   -2.8619   31.5469    7.4898 C   0  0  0  0  0  0  0  0  0  0  0  0
   -2.8324   32.2440    8.6882 C   0  0  0  0  0  0  0  0  0  0  0  0
   -1.8235   31.9543    9.5965 C   0  0  0  0  0  0  0  0  0  0  0  0
   -0.8781   30.9793    9.2866 C   0  0  0  0  0  0  0  0  0  0  0  0
   -0.9628   30.3054    8.0691 C   0  0  0  0  0  0  0  0  0  0  0  0
   -1.9464   30.5997    7.1756 N   0  0  0  0  0  0  0  0  0  0  0  0
 17 18  1  0  0  0
 18 19  1  0  0  0
 19 20  2  0  0  0
 20 21  1  0  0  0
 21 22  2  0  0  0
 22 14  1  0  0  0
 14 15  1  0  0  0
 14 16  1  0  0  0
 14 13  1  0  0  0
 13  1  1  0  0  0
  1  3  1  0  0  0
  3  4  1  0  0  0
  4  5  2  0  0  0
  5  6  1  0  0  0
  6  7  2  0  0  0
  7  8  1  0  0  0
  8  9  1  0  0  0
  9 10  2  0  0  0
 10 11  1  0  0  0
 11 12  1  0  0  0
 22 23  1  0  0  0
 23 18  2  0  0  0
  8  3  2  0  0  0
 11  7  1  0  0  0
  1  2  1  0  0  0
M  END
> <minimizedAffinity>
-8.65421

$$$$
OCNT-2313164


 28 31  0  0  0  0  0  0  0  0999 V2000
   -6.8586   27.6524    5.8429 O   0  0  0  0  0  0  0  0  0  0  0  0
   -5.7994   27.2238    5.3837 C   0  0  0  0  0  0  0  0  0  0  0  0
   -4.5990   27.9182    5.5872 N   0  0  0  0  0  0  0  0  0  0  0  0
   -3.2734   27.3008    5.4837 C   0  0  0  0  0  0  0  0  0  0  0  0
   -2.2339   27.9743    6.3837 C   0  0  0  0  0  0  0  0  0  0  0  0
   -2.8188   28.2885    7.7613 C   0  0  0  0  0  0  0  0  0  0  0  0
   -4.1070   29.1450    7.6759 C   0  0  0  0  0  0  0  0  0  0  0  0
   -4.6461   29.2277    6.2342 C   0  0  0  0  0  0  0  0  0  0  0  0
   -3.9318   30.5344    8.2649 C   0  0  0  0  0  0  0  0  0  0  0  0
   -4.6365   31.6185    7.7165 C   0  0  0  0  0  0  0  0  0  0  0  0
   -4.4803   32.9025    8.2375 C   0  0  0  0  0  0  0  0  0  0  0  0
   -5.1958   33.9099    7.6605 O   0  0  0  0  0  0  0  0  0  0  0  0
   -3.6251   33.1407    9.3044 C   0  0  0  0  0  0  0  0  0  0  0  0
   -2.9233   32.0712    9.8451 C   0  0  0  0  0  0  0  0  0  0  0  0
   -2.0916   32.2845   10.8735 F   0  0  0  0  0  0  0  0  0  0  0  0
   -3.0644   30.7803    9.3397 C   0  0  0  0  0  0  0  0  0  0  0  0
   -4.9856   34.7448    8.1110 H   0  0  0  0  0  0  0  0  0  0  0  0
   -5.7704   25.9683    4.6673 C   0  0  0  0  0  0  0  0  0  0  0  0
   -6.1280   25.7126    3.3579 C   0  0  0  0  0  0  0  0  0  0  0  0
   -5.8975   24.3334    3.0105 C   0  0  0  0  0  0  0  0  0  0  0  0
   -5.3569   23.5989    3.9910 N   0  0  0  0  0  0  0  0  0  0  0  0
   -5.0828   24.5518    5.3129 S   0  0  0  0  0  0  0  0  0  0  0  0
   -6.1975   23.7342    1.7032 C   0  0  0  0  0  0  0  0  0  0  0  0
   -6.8577   24.4710    0.7221 C   0  0  0  0  0  0  0  0  0  0  0  0
   -7.1355   23.8607   -0.4989 C   0  0  0  0  0  0  0  0  0  0  0  0
   -6.7502   22.5411   -0.7034 C   0  0  0  0  0  0  0  0  0  0  0  0
   -6.1010   21.8808    0.3262 C   0  0  0  0  0  0  0  0  0  0  0  0
   -5.8225   22.4427    1.5217 N   0  0  0  0  0  0  0  0  0  0  0  0
  1  2  2  0  0  0
  2 18  1  0  0  0
 18 19  2  0  0  0
 19 20  1  0  0  0
 20 23  1  0  0  0
 23 24  2  0  0  0
 24 25  1  0  0  0
 25 26  2  0  0  0
 26 27  1  0  0  0
 27 28  2  0  0  0
 20 21  2  0  0  0
 21 22  1  0  0  0
  2  3  1  0  0  0
  3  4  1  0  0  0
  4  5  1  0  0  0
  5  6  1  0  0  0
  6  7  1  0  0  0
  7  9  1  0  0  0
  9 10  1  0  0  0
 10 11  2  0  0  0
 11 12  1  0  0  0
 11 13  1  0  0  0
 13 14  2  0  0  0
 14 15  1  0  0  0
 14 16  1  0  0  0
  7  8  1  0  0  0
 22 18  1  0  0  0
  8  3  1  0  0  0
 28 23  1  0  0  0
 16  9  2  0  0  0
 12 17  1  0  0  0
M  END
> <minimizedAffinity>
-10.05725

$$$$
OCNT-2313173


 27 31  0  0  0  0  0  0  0  0999 V2000
   -4.9014   24.2765    2.1773 C   0  0  0  0  0  0  0  0  0  0  0  0
   -3.9052   24.2713    3.0350 N   0  0  0  0  0  0  0  0  0  0  0  0
   -3.7651   25.6100    3.3458 C   0  0  0  0  0  0  0  0  0  0  0  0
   -4.6224   26.4062    2.6854 N   0  0  0  0  0  0  0  0  0  0  0  0
   -5.3731   25.5274    1.9123 O   0  0  0  0  0  0  0  0  0  0  0  0
   -2.7660   26.0891    4.2963 C   0  0  0  0  0  0  0  0  0  0  0  0
   -1.4012   25.8364    4.0661 C   0  0  0  0  0  0  0  0  0  0  0  0
   -0.4035   26.2744    4.9484 C   0  0  0  0  0  0  0  0  0  0  0  0
   -0.8340   26.9781    6.0720 C   0  0  0  0  0  0  0  0  0  0  0  0
   -0.1596   27.5434    7.1246 N   0  0  0  0  0  0  0  0  0  0  0  0
   -1.0800   28.1168    7.9556 C   0  0  0  0  0  0  0  0  0  0  0  0
   -2.3037   27.9574    7.5075 N   0  0  0  0  0  0  0  0  0  0  0  0
   -2.1714   27.2500    6.3373 C   0  0  0  0  0  0  0  0  0  0  0  0
   -3.1561   26.8029    5.4443 C   0  0  0  0  0  0  0  0  0  0  0  0
    0.8404   27.5370    7.2625 H   0  0  0  0  0  0  0  0  0  0  0  0
   -5.5217   23.1617    1.4421 C   0  0  0  0  0  0  0  0  0  0  0  0
   -7.9996   22.0875    3.6243 C   0  0  0  0  0  0  0  0  0  0  0  0
   -7.3039   23.1229    3.1176 N   0  0  0  0  0  0  0  0  0  0  0  0
   -6.4575   22.4681    2.2974 N   0  0  0  0  0  0  0  0  0  0  0  0
   -6.6283   21.1374    2.2311 N   0  0  0  0  0  0  0  0  0  0  0  0
   -7.6031   20.8809    3.0907 N   0  0  0  0  0  0  0  0  0  0  0  0
  -11.1124   22.4411    6.5216 C   0  0  0  0  0  0  0  0  0  0  0  0
  -10.2405   23.5050    6.2993 C   0  0  0  0  0  0  0  0  0  0  0  0
   -9.2213   23.3884    5.3500 C   0  0  0  0  0  0  0  0  0  0  0  0
   -9.0634   22.2050    4.6131 C   0  0  0  0  0  0  0  0  0  0  0  0
   -9.9490   21.1422    4.8473 C   0  0  0  0  0  0  0  0  0  0  0  0
  -10.9678   21.2600    5.7965 C   0  0  0  0  0  0  0  0  0  0  0  0
 22 23  2  0  0  0
 23 24  1  0  0  0
 24 25  2  0  0  0
 25 17  1  0  0  0
 17 18  2  0  0  0
 18 19  1  0  0  0
 19 16  1  0  0  0
 16  1  1  0  0  0
  1  2  2  0  0  0
  2  3  1  0  0  0
  3  6  1  0  0  0
  6  7  2  0  0  0
  7  8  1  0  0  0
  8  9  2  0  0  0
  9 10  1  0  0  0
 10 11  1  0  0  0
 11 12  2  0  0  0
 12 13  1  0  0  0
 13 14  2  0  0  0
  3  4  2  0  0  0
  4  5  1  0  0  0
 19 20  1  0  0  0
 20 21  2  0  0  0
 25 26  1  0  0  0
 26 27  2  0  0  0
 27 22  1  0  0  0
 21 17  1  0  0  0
  5  1  1  0  0  0
 14  6  1  0  0  0
 13  9  1  0  0  0
 10 15  1  0  0  0
M  END
> <minimizedAffinity>
-9.79109

$$$$
OCNT-2313175


 34 37  0  0  0  0  0  0  0  0999 V2000
   -4.8257   26.3341    2.7069 C   0  0  0  0  0  0  0  0  0  0  0  0
   -3.6941   25.8717    2.5959 O   0  0  0  0  0  0  0  0  0  0  0  0
   -5.8807   25.8800    1.9411 N   0  0  0  0  0  0  0  0  0  0  0  0
   -6.8155   26.2096    2.1267 H   0  0  0  0  0  0  0  0  0  0  0  0
   -4.9952   28.4022    5.6742 C   0  0  0  0  0  0  0  0  0  0  0  0
   -4.5906   27.3866    4.9487 N   0  0  0  0  0  0  0  0  0  0  0  0
   -5.1573   27.3923    3.6751 C   0  0  0  0  0  0  0  0  0  0  0  0
   -6.0003   28.4674    3.4542 C   0  0  0  0  0  0  0  0  0  0  0  0
   -6.0962   29.4512    4.8503 S   0  0  0  0  0  0  0  0  0  0  0  0
   -4.6632   28.6938    6.9533 N   0  0  0  0  0  0  0  0  0  0  0  0
   -5.4224   28.7135    7.6202 H   0  0  0  0  0  0  0  0  0  0  0  0
   -0.9396   29.8079    8.6605 C   0  0  0  0  0  0  0  0  0  0  0  0
   -1.1286   28.5065    8.1980 C   0  0  0  0  0  0  0  0  0  0  0  0
   -2.3471   28.1155    7.6272 C   0  0  0  0  0  0  0  0  0  0  0  0
   -3.4071   29.0175    7.4978 C   0  0  0  0  0  0  0  0  0  0  0  0
   -3.2037   30.3240    7.9748 C   0  0  0  0  0  0  0  0  0  0  0  0
   -1.9863   30.7190    8.5485 C   0  0  0  0  0  0  0  0  0  0  0  0
    1.3444   29.1720    8.8234 C   0  0  0  0  0  0  0  0  0  0  0  0
    0.2943   30.0563    9.1935 O   0  0  0  0  0  0  0  0  0  0  0  0
   -5.7109   24.8467    0.9346 C   0  0  0  0  0  0  0  0  0  0  0  0
   -6.5074   25.1711   -0.3313 C   0  0  0  0  0  0  0  0  0  0  0  0
   -6.1034   23.4940    1.5045 C   0  0  0  0  0  0  0  0  0  0  0  0
   -5.7449   22.3196    0.8355 C   0  0  0  0  0  0  0  0  0  0  0  0
   -6.1025   21.0800    1.3577 C   0  0  0  0  0  0  0  0  0  0  0  0
   -6.8145   20.9999    2.5589 C   0  0  0  0  0  0  0  0  0  0  0  0
   -7.1819   22.1551    3.2635 C   0  0  0  0  0  0  0  0  0  0  0  0
   -6.8264   23.3928    2.7112 C   0  0  0  0  0  0  0  0  0  0  0  0
   -7.8894   22.0615    4.4891 N   0  0  0  0  0  0  0  0  0  0  0  0
   -9.3279   21.8950    4.5632 C   0  0  0  0  0  0  0  0  0  0  0  0
   -9.6108   21.6763    6.0410 C   0  0  0  0  0  0  0  0  0  0  0  0
   -8.4158   22.1212    6.6886 N   0  0  0  0  0  0  0  0  0  0  0  0
   -7.3603   22.1997    5.7866 C   0  0  0  0  0  0  0  0  0  0  0  0
   -6.2050   22.3397    6.1533 O   0  0  0  0  0  0  0  0  0  0  0  0
   -8.2018   22.0139    7.6713 H   0  0  0  0  0  0  0  0  0  0  0  0
 18 19  1  0  0  0
 19 12  1  0  0  0
 12 13  1  0  0  0
 13 14  2  0  0  0
 14 15  1  0  0  0
 15 10  1  0  0  0
 10  5  1  0  0  0
  5  6  2  0  0  0
  6  7  1  0  0  0
  7  1  1  0  0  0
  1  2  2  0  0  0
  1  3  1  0  0  0
  3 20  1  0  0  0
 20 21  1  0  0  0
 20 22  1  0  0  0
 22 23  2  0  0  0
 23 24  1  0  0  0
 24 25  2  0  0  0
 25 26  1  0  0  0
 26 28  1  0  0  0
 28 29  1  0  0  0
 29 30  1  0  0  0
 30 31  1  0  0  0
 31 32  1  0  0  0
 32 33  2  0  0  0
 26 27  2  0  0  0
  7  8  2  0  0  0
  8  9  1  0  0  0
 15 16  2  0  0  0
 16 17  1  0  0  0
 17 12  2  0  0  0
  9  5  1  0  0  0
 27 22  1  0  0  0
 32 28  1  0  0  0
 10 11  1  0  0  0
  3  4  1  0  0  0
 31 34  1  0  0  0
M  END
> <minimizedAffinity>
-9.81203

$$$$
OCNT-2313184


 29 31  0  0  0  0  0  0  0  0999 V2000
   -3.9722   28.4457    7.2503 N   0  0  0  0  0  0  0  0  0  0  0  0
   -4.6775   27.9471    6.1723 C   0  0  0  0  0  0  0  0  0  0  0  0
   -5.8906   28.0711    6.0727 O   0  0  0  0  0  0  0  0  0  0  0  0
   -3.8327   27.3491    5.2733 N   0  0  0  0  0  0  0  0  0  0  0  0
   -3.1111   27.9724    7.4815 H   0  0  0  0  0  0  0  0  0  0  0  0
   -2.8413   27.4861    5.3834 H   0  0  0  0  0  0  0  0  0  0  0  0
   -4.1850   26.6878    4.1243 C   0  0  0  0  0  0  0  0  0  0  0  0
   -3.3250   26.4742    3.1528 N   0  0  0  0  0  0  0  0  0  0  0  0
   -3.8864   25.7668    2.1095 N   0  0  0  0  0  0  0  0  0  0  0  0
   -5.1558   25.4633    2.3301 C   0  0  0  0  0  0  0  0  0  0  0  0
   -5.7309   26.0374    3.8497 S   0  0  0  0  0  0  0  0  0  0  0  0
   -6.0152   24.7110    1.4045 C   0  0  0  0  0  0  0  0  0  0  0  0
   -6.3387   25.2318    0.1531 C   0  0  0  0  0  0  0  0  0  0  0  0
   -7.1501   24.4882   -0.7008 C   0  0  0  0  0  0  0  0  0  0  0  0
   -7.6196   23.2487   -0.2841 C   0  0  0  0  0  0  0  0  0  0  0  0
   -7.2544   22.8014    0.9731 C   0  0  0  0  0  0  0  0  0  0  0  0
   -6.4694   23.5009    1.8214 N   0  0  0  0  0  0  0  0  0  0  0  0
   -4.6729   28.9829    8.3986 C   0  0  0  0  0  0  0  0  0  0  0  0
   -4.6289   34.8059    8.6137 C   0  0  0  0  0  0  0  0  0  0  0  0
   -4.6221   33.3099    8.5023 C   0  0  0  0  0  0  0  0  0  0  0  0
   -5.7954   32.6155    8.1927 C   0  0  0  0  0  0  0  0  0  0  0  0
   -5.7996   31.2201    8.1463 C   0  0  0  0  0  0  0  0  0  0  0  0
   -4.6277   30.4900    8.3978 C   0  0  0  0  0  0  0  0  0  0  0  0
   -3.4507   31.1887    8.7024 C   0  0  0  0  0  0  0  0  0  0  0  0
   -3.4560   32.5852    8.7818 C   0  0  0  0  0  0  0  0  0  0  0  0
   -2.3347   30.4618    9.0291 O   0  0  0  0  0  0  0  0  0  0  0  0
   -1.1413   30.8645    8.3335 C   0  0  0  0  0  0  0  0  0  0  0  0
   -1.3170   30.6131    6.8367 C   0  0  0  0  0  0  0  0  0  0  0  0
    0.0022   30.0162    8.8874 C   0  0  0  0  0  0  0  0  0  0  0  0
 19 20  1  0  0  0
 20 21  1  0  0  0
 21 22  2  0  0  0
 22 23  1  0  0  0
 23 18  1  0  0  0
 18  1  1  0  0  0
  1  2  1  0  0  0
  2  3  2  0  0  0
  2  4  1  0  0  0
  4  7  1  0  0  0
  7  8  2  0  0  0
  8  9  1  0  0  0
  9 10  2  0  0  0
 10 12  1  0  0  0
 12 13  2  0  0  0
 13 14  1  0  0  0
 14 15  2  0  0  0
 15 16  1  0  0  0
 16 17  2  0  0  0
 10 11  1  0  0  0
 23 24  2  0  0  0
 24 26  1  0  0  0
 26 27  1  0  0  0
 27 28  1  0  0  0
 27 29  1  0  0  0
 24 25  1  0  0  0
 25 20  2  0  0  0
 11  7  1  0  0  0
 17 12  1  0  0  0
  1  5  1  0  0  0
  4  6  1  0  0  0
M  END
> <minimizedAffinity>
-9.92893

$$$$
OCNT-2313188


 30 32  0  0  0  0  0  0  0  0999 V2000
   -6.5585   29.1512    5.5866 C   0  0  0  0  0  0  0  0  0  0  0  0
   -6.2302   29.4129    4.2486 C   0  0  0  0  0  0  0  0  0  0  0  0
   -5.9061   28.3663    3.3796 C   0  0  0  0  0  0  0  0  0  0  0  0
   -5.8926   27.0458    3.8470 C   0  0  0  0  0  0  0  0  0  0  0  0
   -6.2293   26.7778    5.1777 C   0  0  0  0  0  0  0  0  0  0  0  0
   -6.5515   27.8249    6.0433 C   0  0  0  0  0  0  0  0  0  0  0  0
   -5.5556   25.9016    2.9534 C   0  0  0  0  0  0  0  0  0  0  0  0
   -4.7160   26.0730    2.0785 O   0  0  0  0  0  0  0  0  0  0  0  0
   -6.2769   24.7449    3.1938 N   0  0  0  0  0  0  0  0  0  0  0  0
   -7.0300   24.8064    3.8660 H   0  0  0  0  0  0  0  0  0  0  0  0
   -6.1413   23.5044    2.5328 C   0  0  0  0  0  0  0  0  0  0  0  0
   -6.6313   23.4144    1.2290 C   0  0  0  0  0  0  0  0  0  0  0  0
   -6.5173   22.2070    0.5579 C   0  0  0  0  0  0  0  0  0  0  0  0
   -5.9598   21.1029    1.0920 N   0  0  0  0  0  0  0  0  0  0  0  0
   -5.4953   21.2139    2.3546 C   0  0  0  0  0  0  0  0  0  0  0  0
   -5.5634   22.3767    3.1066 C   0  0  0  0  0  0  0  0  0  0  0  0
   -6.8951   30.2748    6.5348 C   0  0  0  0  0  0  0  0  0  0  0  0
   -4.9591   30.6092    8.0264 C   0  0  0  0  0  0  0  0  0  0  0  0
   -5.2910   29.7075    8.7865 O   0  0  0  0  0  0  0  0  0  0  0  0
   -5.7013   30.9879    6.9279 N   0  0  0  0  0  0  0  0  0  0  0  0
   -5.2893   31.6208    6.2568 H   0  0  0  0  0  0  0  0  0  0  0  0
   -3.6770   31.4156    8.1709 C   0  0  0  0  0  0  0  0  0  0  0  0
   -1.9715   31.9904    9.9407 C   0  0  0  0  0  0  0  0  0  0  0  0
   -2.7064   30.8470    9.2241 C   0  0  0  0  0  0  0  0  0  0  0  0
   -1.6928   29.8164    8.6417 C   0  0  0  0  0  0  0  0  0  0  0  0
   -0.2256   30.1094    9.0120 C   0  0  0  0  0  0  0  0  0  0  0  0
    0.7272   29.2224    8.2175 C   0  0  0  0  0  0  0  0  0  0  0  0
    0.6148   29.4521    6.7110 C   0  0  0  0  0  0  0  0  0  0  0  0
   -0.7041   30.0942    6.2873 C   0  0  0  0  0  0  0  0  0  0  0  0
   -1.8809   29.5984    7.1215 C   0  0  0  0  0  0  0  0  0  0  0  0
 23 24  1  0  0  0
 24 22  1  0  0  0
 22 18  1  0  0  0
 18 19  2  0  0  0
 18 20  1  0  0  0
 20 17  1  0  0  0
 17  1  1  0  0  0
  1  2  1  0  0  0
  2  3  2  0  0  0
  3  4  1  0  0  0
  4  7  1  0  0  0
  7  8  2  0  0  0
  7  9  1  0  0  0
  9 11  1  0  0  0
 11 12  2  0  0  0
 12 13  1  0  0  0
 13 14  2  0  0  0
 14 15  1  0  0  0
 15 16  2  0  0  0
  4  5  2  0  0  0
  5  6  1  0  0  0
 24 25  1  0  0  0
 25 26  1  0  0  0
 26 27  1  0  0  0
 27 28  1  0  0  0
 28 29  1  0  0  0
 29 30  1  0  0  0
  6  1  2  0  0  0
 30 25  1  0  0  0
 16 11  1  0  0  0
 20 21  1  0  0  0
  9 10  1  0  0  0
M  END
> <minimizedAffinity>
-10.55933

$$$$
OCNT-2313195


 26 29  0  0  0  0  0  0  0  0999 V2000
   -1.4730   25.8715    4.5329 C   0  0  0  0  0  0  0  0  0  0  0  0
   -2.8652   26.3257    4.4794 N   0  0  0  0  0  0  0  0  0  0  0  0
   -3.4582   26.4663    3.1465 C   0  0  0  0  0  0  0  0  0  0  0  0
   -4.9685   26.2020    3.3251 C   0  0  0  0  0  0  0  0  0  0  0  0
   -5.8571   27.2389    2.6103 C   0  0  0  0  0  0  0  0  0  0  0  0
   -5.9319   28.5819    3.3259 C   0  0  0  0  0  0  0  0  0  0  0  0
   -6.4042   28.3973    4.7608 C   0  0  0  0  0  0  0  0  0  0  0  0
   -5.4444   27.5011    5.5331 C   0  0  0  0  0  0  0  0  0  0  0  0
   -5.1637   26.1451    4.8509 C   0  0  0  0  0  0  0  0  0  0  0  0
   -6.3130   25.1525    5.0130 C   0  0  0  0  0  0  0  0  0  0  0  0
   -6.0172   24.1183    4.0201 N   0  0  0  0  0  0  0  0  0  0  0  0
   -7.1807   23.3265    3.6560 C   0  0  0  0  0  0  0  0  0  0  0  0
   -5.3723   24.7706    2.8667 C   0  0  0  0  0  0  0  0  0  0  0  0
   -3.8059   25.5850    5.3208 C   0  0  0  0  0  0  0  0  0  0  0  0
   -0.5048   26.5669    5.5268 C   0  0  0  0  0  0  0  0  0  0  0  0
    0.5761   27.2015    4.8262 O   0  0  0  0  0  0  0  0  0  0  0  0
    0.1788   27.9484    4.3388 H   0  0  0  0  0  0  0  0  0  0  0  0
   -1.2356   27.6444    6.3467 C   0  0  0  0  0  0  0  0  0  0  0  0
   -0.3723   28.7799    6.4714 O   0  0  0  0  0  0  0  0  0  0  0  0
    0.8868   29.2370    8.8943 C   0  0  0  0  0  0  0  0  0  0  0  0
   -0.2265   30.1175    8.3972 C   0  0  0  0  0  0  0  0  0  0  0  0
   -0.6490   31.2082    9.1724 C   0  0  0  0  0  0  0  0  0  0  0  0
   -1.6762   32.0376    8.7263 C   0  0  0  0  0  0  0  0  0  0  0  0
   -2.2906   31.7836    7.5033 C   0  0  0  0  0  0  0  0  0  0  0  0
   -1.8795   30.7005    6.7224 C   0  0  0  0  0  0  0  0  0  0  0  0
   -0.8470   29.8649    7.1597 C   0  0  0  0  0  0  0  0  0  0  0  0
 20 21  1  0  0  0
 21 22  2  0  0  0
 22 23  1  0  0  0
 23 24  2  0  0  0
 24 25  1  0  0  0
 25 26  2  0  0  0
 26 19  1  0  0  0
 19 18  1  0  0  0
 18 15  1  0  0  0
 15 16  1  0  0  0
 15  1  1  0  0  0
  1  2  1  0  0  0
  2  3  1  0  0  0
  3  4  1  0  0  0
  4  5  1  0  0  0
  5  6  1  0  0  0
  6  7  1  0  0  0
  7  8  1  0  0  0
  8  9  1  0  0  0
  9 10  1  0  0  0
 10 11  1  0  0  0
 11 12  1  0  0  0
 11 13  1  0  0  0
  9 14  1  0  0  0
 26 21  1  0  0  0
 14  2  1  0  0  0
  9  4  1  0  0  0
 13  4  1  0  0  0
 16 17  1  0  0  0
M  END
> <minimizedAffinity>
-9.51747

$$$$
OCNT-2313201


 33 35  0  0  0  0  0  0  0  0999 V2000
   -6.1313   27.6661    6.1898 N   0  0  0  0  0  0  0  0  0  0  0  0
   -5.1660   28.5246    6.6976 C   0  0  0  0  0  0  0  0  0  0  0  0
   -4.1081   28.7976    6.1438 O   0  0  0  0  0  0  0  0  0  0  0  0
   -5.5699   29.0448    7.9089 N   0  0  0  0  0  0  0  0  0  0  0  0
   -7.0352   27.7124    6.6383 H   0  0  0  0  0  0  0  0  0  0  0  0
   -6.3742   28.6791    8.3895 H   0  0  0  0  0  0  0  0  0  0  0  0
   -5.8856   25.4658    2.5986 C   0  0  0  0  0  0  0  0  0  0  0  0
   -5.7887   26.8600    2.5989 C   0  0  0  0  0  0  0  0  0  0  0  0
   -5.8765   27.5619    3.8054 C   0  0  0  0  0  0  0  0  0  0  0  0
   -6.0525   26.8828    5.0201 C   0  0  0  0  0  0  0  0  0  0  0  0
   -6.1644   25.4903    5.0063 C   0  0  0  0  0  0  0  0  0  0  0  0
   -6.0910   24.7847    3.8007 C   0  0  0  0  0  0  0  0  0  0  0  0
   -6.6536   23.5999    1.2568 N   0  0  0  0  0  0  0  0  0  0  0  0
   -5.8048   24.6819    1.3405 C   0  0  0  0  0  0  0  0  0  0  0  0
   -5.0324   25.0247    0.4541 O   0  0  0  0  0  0  0  0  0  0  0  0
   -7.2833   23.4024    2.0225 H   0  0  0  0  0  0  0  0  0  0  0  0
   -6.6421   22.6944    0.1157 C   0  0  0  0  0  0  0  0  0  0  0  0
   -8.0410   22.5937   -0.4921 C   0  0  0  0  0  0  0  0  0  0  0  0
   -5.8226   21.1157    1.9853 C   0  0  0  0  0  0  0  0  0  0  0  0
   -6.0591   21.3207    0.4925 C   0  0  0  0  0  0  0  0  0  0  0  0
   -4.8996   29.9992    8.6333 C   0  0  0  0  0  0  0  0  0  0  0  0
   -3.5638   30.0082    8.5939 N   0  0  0  0  0  0  0  0  0  0  0  0
   -3.2161   31.0090    9.4334 N   0  0  0  0  0  0  0  0  0  0  0  0
   -4.2915   31.6657    9.9584 C   0  0  0  0  0  0  0  0  0  0  0  0
   -5.4017   31.0189    9.4686 C   0  0  0  0  0  0  0  0  0  0  0  0
   -1.8106   31.3349    9.6469 C   0  0  0  0  0  0  0  0  0  0  0  0
   -0.9114   30.6239    8.6580 C   0  0  0  0  0  0  0  0  0  0  0  0
    0.0891   29.7697    9.1653 C   0  0  0  0  0  0  0  0  0  0  0  0
    0.9566   29.0894    8.3136 C   0  0  0  0  0  0  0  0  0  0  0  0
    0.8386   29.2478    6.9379 C   0  0  0  0  0  0  0  0  0  0  0  0
   -0.1417   30.0914    6.4153 C   0  0  0  0  0  0  0  0  0  0  0  0
   -1.0236   30.7892    7.2597 C   0  0  0  0  0  0  0  0  0  0  0  0
   -2.0580   31.6870    6.6339 C   0  0  0  0  0  0  0  0  0  0  0  0
 19 20  1  0  0  0
 20 17  1  0  0  0
 17 18  1  0  0  0
 17 13  1  0  0  0
 13 14  1  0  0  0
 14 15  2  0  0  0
 14  7  1  0  0  0
  7  8  1  0  0  0
  8  9  2  0  0  0
  9 10  1  0  0  0
 10  1  1  0  0  0
  1  2  1  0  0  0
  2  3  2  0  0  0
  2  4  1  0  0  0
  4 21  1  0  0  0
 21 22  2  0  0  0
 22 23  1  0  0  0
 23 26  1  0  0  0
 26 27  1  0  0  0
 27 28  2  0  0  0
 28 29  1  0  0  0
 29 30  2  0  0  0
 30 31  1  0  0  0
 31 32  2  0  0  0
 32 33  1  0  0  0
 23 24  1  0  0  0
 24 25  2  0  0  0
 10 11  2  0  0  0
 11 12  1  0  0  0
 12  7  2  0  0  0
 25 21  1  0  0  0
 32 27  1  0  0  0
 13 16  1  0  0  0
  1  5  1  0  0  0
  4  6  1  0  0  0
M  END
> <minimizedAffinity>
-10.55973

$$$$
OCNT-2313211


 29 31  0  0  0  0  0  0  0  0999 V2000
   -3.9994   25.5417    4.4524 C   0  0  0  0  0  0  0  0  0  0  0  0
   -4.0116   24.0692    4.0161 C   0  0  0  0  0  0  0  0  0  0  0  0
   -5.0819   24.0398    3.0104 N   0  0  0  0  0  0  0  0  0  0  0  0
   -6.1592   24.9044    3.5092 C   0  0  0  0  0  0  0  0  0  0  0  0
   -5.5076   25.8492    4.5355 C   0  0  0  0  0  0  0  0  0  0  0  0
   -5.8702   27.3095    4.3691 C   0  0  0  0  0  0  0  0  0  0  0  0
   -6.3461   28.0370    5.4704 C   0  0  0  0  0  0  0  0  0  0  0  0
   -6.6935   29.3835    5.3395 C   0  0  0  0  0  0  0  0  0  0  0  0
   -6.5662   30.0217    4.1093 C   0  0  0  0  0  0  0  0  0  0  0  0
   -6.0975   29.3117    3.0069 C   0  0  0  0  0  0  0  0  0  0  0  0
   -5.7562   27.9630    3.1331 C   0  0  0  0  0  0  0  0  0  0  0  0
   -2.1198   26.4911    5.7550 C   0  0  0  0  0  0  0  0  0  0  0  0
   -1.4375   26.7233    4.7613 O   0  0  0  0  0  0  0  0  0  0  0  0
   -3.3311   25.8244    5.7191 N   0  0  0  0  0  0  0  0  0  0  0  0
   -3.9559   26.0842    6.4728 H   0  0  0  0  0  0  0  0  0  0  0  0
   -1.6935   26.9089    7.1523 C   0  0  0  0  0  0  0  0  0  0  0  0
    0.5816   29.0856    6.3813 C   0  0  0  0  0  0  0  0  0  0  0  0
   -0.7583   29.3368    6.9716 C   0  0  0  0  0  0  0  0  0  0  0  0
   -1.1459   30.5890    7.2436 N   0  0  0  0  0  0  0  0  0  0  0  0
   -2.3817   30.4511    7.7376 N   0  0  0  0  0  0  0  0  0  0  0  0
   -2.8037   29.1543    7.8131 C   0  0  0  0  0  0  0  0  0  0  0  0
   -4.1466   28.8004    8.3234 C   0  0  0  0  0  0  0  0  0  0  0  0
   -1.7628   28.3886    7.3153 C   0  0  0  0  0  0  0  0  0  0  0  0
   -2.8842   31.2905    8.0040 H   0  0  0  0  0  0  0  0  0  0  0  0
   -5.5451   22.6757    2.6739 C   0  0  0  0  0  0  0  0  0  0  0  0
   -6.2163   22.4545    1.3037 C   0  0  0  0  0  0  0  0  0  0  0  0
   -5.9285   23.4879    0.4746 F   0  0  0  0  0  0  0  0  0  0  0  0
   -7.5614   22.3945    1.4121 F   0  0  0  0  0  0  0  0  0  0  0  0
   -5.7897   21.3247    0.7021 F   0  0  0  0  0  0  0  0  0  0  0  0
 17 18  1  0  0  0
 18 19  2  0  0  0
 19 20  1  0  0  0
 20 21  1  0  0  0
 21 22  1  0  0  0
 21 23  2  0  0  0
 23 16  1  0  0  0
 16 12  1  0  0  0
 12 13  2  0  0  0
 12 14  1  0  0  0
 14  1  1  0  0  0
  1  2  1  0  0  0
  2  3  1  0  0  0
  3 25  1  0  0  0
 25 26  1  0  0  0
 26 27  1  0  0  0
 26 28  1  0  0  0
 26 29  1  0  0  0
  3  4  1  0  0  0
  4  5  1  0  0  0
  5  6  1  0  0  0
  6  7  2  0  0  0
  7  8  1  0  0  0
  8  9  2  0  0  0
  9 10  1  0  0  0
 10 11  2  0  0  0
 23 18  1  0  0  0
  5  1  1  0  0  0
 11  6  1  0  0  0
 20 24  1  0  0  0
 14 15  1  0  0  0
M  END
> <minimizedAffinity>
-8.69052

$$$$
OCNT-2313233


 27 29  0  0  0  0  0  0  0  0999 V2000
   -1.5855   25.7956    4.4516 C   0  0  0  0  0  0  0  0  0  0  0  0
   -3.9762   25.3039    4.0889 C   0  0  0  0  0  0  0  0  0  0  0  0
   -3.7397   24.4618    3.2280 O   0  0  0  0  0  0  0  0  0  0  0  0
   -2.9925   26.0354    4.7196 N   0  0  0  0  0  0  0  0  0  0  0  0
   -3.2364   26.5753    5.5405 H   0  0  0  0  0  0  0  0  0  0  0  0
   -5.3856   25.6155    4.5592 C   0  0  0  0  0  0  0  0  0  0  0  0
   -6.3034   29.2003    5.5155 C   0  0  0  0  0  0  0  0  0  0  0  0
   -6.3334   29.8195    4.2626 C   0  0  0  0  0  0  0  0  0  0  0  0
   -6.0535   29.0810    3.1132 C   0  0  0  0  0  0  0  0  0  0  0  0
   -5.7463   27.7233    3.2121 C   0  0  0  0  0  0  0  0  0  0  0  0
   -5.7207   27.0853    4.4610 C   0  0  0  0  0  0  0  0  0  0  0  0
   -5.9962   27.8368    5.6132 C   0  0  0  0  0  0  0  0  0  0  0  0
   -6.8097   30.5674    7.6613 N   0  0  0  0  0  0  0  0  0  0  0  0
   -6.5881   29.9581    6.6988 C   0  0  0  0  0  0  0  0  0  0  0  0
   -0.6640   26.8632    5.0659 C   0  0  0  0  0  0  0  0  0  0  0  0
   -0.5959   26.6832    6.5178 N   0  0  0  0  0  0  0  0  0  0  0  0
   -1.4040   26.1547    6.8542 H   0  0  0  0  0  0  0  0  0  0  0  0
   -0.6920   27.8777    7.2375 C   0  0  0  0  0  0  0  0  0  0  0  0
    0.4232   28.6351    7.5644 C   0  0  0  0  0  0  0  0  0  0  0  0
    0.2508   29.8046    8.2971 C   0  0  0  0  0  0  0  0  0  0  0  0
   -1.0335   30.1866    8.6938 C   0  0  0  0  0  0  0  0  0  0  0  0
   -1.2635   31.3595    9.4351 C   0  0  0  0  0  0  0  0  0  0  0  0
   -2.5575   31.7071    9.8167 C   0  0  0  0  0  0  0  0  0  0  0  0
   -3.6217   30.8865    9.4609 C   0  0  0  0  0  0  0  0  0  0  0  0
   -3.3867   29.7212    8.7245 C   0  0  0  0  0  0  0  0  0  0  0  0
   -2.1078   29.3502    8.3299 C   0  0  0  0  0  0  0  0  0  0  0  0
   -1.9353   28.2191    7.6213 N   0  0  0  0  0  0  0  0  0  0  0  0
 13 14  3  0  0  0
 14  7  1  0  0  0
  7  8  1  0  0  0
  8  9  2  0  0  0
  9 10  1  0  0  0
 10 11  2  0  0  0
 11  6  1  0  0  0
  6  2  1  0  0  0
  2  3  2  0  0  0
  2  4  1  0  0  0
  4  1  1  0  0  0
  1 15  1  0  0  0
 15 16  1  0  0  0
 16 18  1  0  0  0
 18 19  1  0  0  0
 19 20  2  0  0  0
 20 21  1  0  0  0
 21 22  2  0  0  0
 22 23  1  0  0  0
 23 24  2  0  0  0
 24 25  1  0  0  0
 25 26  2  0  0  0
 26 27  1  0  0  0
 11 12  1  0  0  0
 12  7  2  0  0  0
 27 18  2  0  0  0
 26 21  1  0  0  0
  4  5  1  0  0  0
 16 17  1  0  0  0
M  END
> <minimizedAffinity>
-9.41179

$$$$
OCNT-2313237


 34 38  0  0  0  0  0  0  0  0999 V2000
   -5.2720   23.7698    3.1566 C   0  0  0  0  0  0  0  0  0  0  0  0
   -5.9498   23.9340    1.7868 C   0  0  0  0  0  0  0  0  0  0  0  0
   -5.9270   25.1335    1.0622 C   0  0  0  0  0  0  0  0  0  0  0  0
   -6.5780   25.2464   -0.1698 C   0  0  0  0  0  0  0  0  0  0  0  0
   -7.2595   24.1581   -0.7032 C   0  0  0  0  0  0  0  0  0  0  0  0
   -7.2825   22.9521   -0.0117 C   0  0  0  0  0  0  0  0  0  0  0  0
   -6.6286   22.8372    1.2174 C   0  0  0  0  0  0  0  0  0  0  0  0
   -4.6651   25.0245    3.6803 N   0  0  0  0  0  0  0  0  0  0  0  0
   -4.9061   25.3228    5.0988 C   0  0  0  0  0  0  0  0  0  0  0  0
   -3.6357   25.3037    5.9566 C   0  0  0  0  0  0  0  0  0  0  0  0
   -2.5850   26.2998    5.4295 C   0  0  0  0  0  0  0  0  0  0  0  0
   -2.6437   26.4197    3.8957 C   0  0  0  0  0  0  0  0  0  0  0  0
   -3.2717   25.1830    3.2612 C   0  0  0  0  0  0  0  0  0  0  0  0
   -2.7287   27.6507    6.0744 C   0  0  0  0  0  0  0  0  0  0  0  0
   -3.8094   28.4136    6.0705 N   0  0  0  0  0  0  0  0  0  0  0  0
   -3.5396   29.5571    6.7848 N   0  0  0  0  0  0  0  0  0  0  0  0
   -2.2974   29.4847    7.2058 C   0  0  0  0  0  0  0  0  0  0  0  0
   -1.4889   30.3614    7.9789 C   0  0  0  0  0  0  0  0  0  0  0  0
   -0.2170   30.0210    8.2549 C   0  0  0  0  0  0  0  0  0  0  0  0
    0.3524   28.7654    7.7851 C   0  0  0  0  0  0  0  0  0  0  0  0
   -0.4140   27.9286    7.0648 C   0  0  0  0  0  0  0  0  0  0  0  0
   -1.7287   28.2926    6.7766 N   0  0  0  0  0  0  0  0  0  0  0  0
   -7.4568   23.4541    4.2997 N   0  0  0  0  0  0  0  0  0  0  0  0
   -6.1393   23.0428    4.2421 C   0  0  0  0  0  0  0  0  0  0  0  0
   -5.6179   22.2428    5.0185 O   0  0  0  0  0  0  0  0  0  0  0  0
   -7.6310   24.3455    3.8482 H   0  0  0  0  0  0  0  0  0  0  0  0
  -10.5038   24.5073    7.9794 C   0  0  0  0  0  0  0  0  0  0  0  0
  -10.0389   23.5314    6.9334 C   0  0  0  0  0  0  0  0  0  0  0  0
  -10.6755   22.3034    6.7822 C   0  0  0  0  0  0  0  0  0  0  0  0
  -10.2641   21.4229    5.7830 C   0  0  0  0  0  0  0  0  0  0  0  0
   -9.2152   21.7450    4.8951 C   0  0  0  0  0  0  0  0  0  0  0  0
   -8.9477   20.7568    3.7951 C   0  0  0  0  0  0  0  0  0  0  0  0
   -8.5388   22.9650    5.0684 C   0  0  0  0  0  0  0  0  0  0  0  0
   -8.9892   23.8565    6.0661 C   0  0  0  0  0  0  0  0  0  0  0  0
 27 28  1  0  0  0
 28 29  1  0  0  0
 29 30  2  0  0  0
 30 31  1  0  0  0
 31 32  1  0  0  0
 31 33  2  0  0  0
 33 23  1  0  0  0
 23 24  1  0  0  0
 24 25  2  0  0  0
 24  1  1  0  0  0
  1  2  1  0  0  0
  2  3  2  0  0  0
  3  4  1  0  0  0
  4  5  2  0  0  0
  5  6  1  0  0  0
  6  7  2  0  0  0
  1  8  1  0  0  0
  8  9  1  0  0  0
  9 10  1  0  0  0
 10 11  1  0  0  0
 11 14  1  0  0  0
 14 15  2  0  0  0
 15 16  1  0  0  0
 16 17  2  0  0  0
 17 18  1  0  0  0
 18 19  2  0  0  0
 19 20  1  0  0  0
 20 21  2  0  0  0
 21 22  1  0  0  0
 11 12  1  0  0  0
 12 13  1  0  0  0
 33 34  1  0  0  0
 34 28  2  0  0  0
  7  2  1  0  0  0
 13  8  1  0  0  0
 22 14  1  0  0  0
 22 17  1  0  0  0
 23 26  1  0  0  0
M  END
> <minimizedAffinity>
-11.12778

$$$$
OCNT-2313239


 29 30  0  0  0  0  0  0  0  0999 V2000
   -5.2325   31.6444    8.1171 C   0  0  0  0  0  0  0  0  0  0  0  0
   -5.6897   31.4216    9.2373 O   0  0  0  0  0  0  0  0  0  0  0  0
   -5.6100   30.9385    6.9889 N   0  0  0  0  0  0  0  0  0  0  0  0
   -4.9590   30.9661    6.2128 H   0  0  0  0  0  0  0  0  0  0  0  0
   -4.7417   34.0621    8.5349 C   0  0  0  0  0  0  0  0  0  0  0  0
   -4.2500   32.7997    7.8421 C   0  0  0  0  0  0  0  0  0  0  0  0
   -2.9377   32.4113    8.3435 N   0  0  0  0  0  0  0  0  0  0  0  0
   -2.1242   31.6027    7.5702 C   0  0  0  0  0  0  0  0  0  0  0  0
   -2.3677   31.3516    6.3964 O   0  0  0  0  0  0  0  0  0  0  0  0
   -2.8925   32.2496    9.3438 H   0  0  0  0  0  0  0  0  0  0  0  0
   -0.9161   31.0891    8.3429 C   0  0  0  0  0  0  0  0  0  0  0  0
   -0.3935   29.6755    7.9908 C   0  0  0  0  0  0  0  0  0  0  0  0
    0.7919   29.3658    8.9302 C   0  0  0  0  0  0  0  0  0  0  0  0
   -1.4730   28.6044    8.2186 C   0  0  0  0  0  0  0  0  0  0  0  0
    0.1182   29.6071    6.5425 C   0  0  0  0  0  0  0  0  0  0  0  0
   -6.4447   29.7584    7.1162 C   0  0  0  0  0  0  0  0  0  0  0  0
   -6.7376   29.1215    5.7659 C   0  0  0  0  0  0  0  0  0  0  0  0
   -6.0283   29.7887    4.5895 C   0  0  0  0  0  0  0  0  0  0  0  0
   -6.0825   28.7133    3.5069 C   0  0  0  0  0  0  0  0  0  0  0  0
   -6.0062   27.4604    4.2549 N   0  0  0  0  0  0  0  0  0  0  0  0
   -6.2296   27.6767    5.6845 C   0  0  0  0  0  0  0  0  0  0  0  0
   -5.8361   26.2242    3.6771 C   0  0  0  0  0  0  0  0  0  0  0  0
   -6.2018   25.0388    4.3442 C   0  0  0  0  0  0  0  0  0  0  0  0
   -6.0334   23.7741    3.7648 C   0  0  0  0  0  0  0  0  0  0  0  0
   -5.4890   23.6734    2.4954 C   0  0  0  0  0  0  0  0  0  0  0  0
   -5.3279   22.4659    1.9375 F   0  0  0  0  0  0  0  0  0  0  0  0
   -5.1145   24.8189    1.8140 C   0  0  0  0  0  0  0  0  0  0  0  0
   -4.5877   24.7304    0.5844 F   0  0  0  0  0  0  0  0  0  0  0  0
   -5.2829   26.0765    2.3946 C   0  0  0  0  0  0  0  0  0  0  0  0
  5  6  1  0  0  0
  6  7  1  0  0  0
  7  8  1  0  0  0
  8  9  2  0  0  0
  8 11  1  0  0  0
 11 12  1  0  0  0
 12 13  1  0  0  0
 12 14  1  0  0  0
 12 15  1  0  0  0
  6  1  1  0  0  0
  1  2  2  0  0  0
  1  3  1  0  0  0
  3 16  1  0  0  0
 16 17  1  0  0  0
 17 18  1  0  0  0
 18 19  1  0  0  0
 19 20  1  0  0  0
 20 22  1  0  0  0
 22 23  1  0  0  0
 23 24  2  0  0  0
 24 25  1  0  0  0
 25 26  1  0  0  0
 25 27  2  0  0  0
 27 28  1  0  0  0
 27 29  1  0  0  0
 20 21  1  0  0  0
 21 17  1  0  0  0
 29 22  2  0  0  0
  7 10  1  0  0  0
  3  4  1  0  0  0
M  END
> <minimizedAffinity>
-9.65663

$$$$
OCNT-2313241


 27 29  0  0  0  0  0  0  0  0999 V2000
   -2.7532   26.0562    4.6503 C   0  0  0  0  0  0  0  0  0  0  0  0
   -1.5631   25.9096    3.9326 C   0  0  0  0  0  0  0  0  0  0  0  0
   -0.3600   26.3352    4.4900 C   0  0  0  0  0  0  0  0  0  0  0  0
   -0.3402   26.8954    5.7708 C   0  0  0  0  0  0  0  0  0  0  0  0
   -1.5168   27.0359    6.5161 C   0  0  0  0  0  0  0  0  0  0  0  0
   -2.7231   26.6043    5.9416 C   0  0  0  0  0  0  0  0  0  0  0  0
   -3.8809   25.0233    2.7739 N   0  0  0  0  0  0  0  0  0  0  0  0
   -4.0223   25.5864    4.0249 C   0  0  0  0  0  0  0  0  0  0  0  0
   -5.0627   25.7017    4.6616 O   0  0  0  0  0  0  0  0  0  0  0  0
   -2.9451   24.8726    2.4116 H   0  0  0  0  0  0  0  0  0  0  0  0
   -5.1747   23.1400    2.0167 C   0  0  0  0  0  0  0  0  0  0  0  0
   -6.1598   22.5750    1.2020 C   0  0  0  0  0  0  0  0  0  0  0  0
   -6.8553   23.3800    0.2997 C   0  0  0  0  0  0  0  0  0  0  0  0
   -8.0682   22.6820   -0.7034 Cl  0  0  0  0  0  0  0  0  0  0  0  0
   -6.5783   24.7402    0.1998 C   0  0  0  0  0  0  0  0  0  0  0  0
   -5.5949   25.3111    1.0107 C   0  0  0  0  0  0  0  0  0  0  0  0
   -4.8909   24.5216    1.9228 C   0  0  0  0  0  0  0  0  0  0  0  0
   -5.0352   21.3220    3.5595 C   0  0  0  0  0  0  0  0  0  0  0  0
   -4.4224   22.4468    2.9391 O   0  0  0  0  0  0  0  0  0  0  0  0
   -1.5528   27.5475    7.8249 N   0  0  0  0  0  0  0  0  0  0  0  0
   -2.0540   26.9528    8.4786 H   0  0  0  0  0  0  0  0  0  0  0  0
   -1.5950   28.8545    8.3127 C   0  0  0  0  0  0  0  0  0  0  0  0
   -0.4653   29.5823    8.6888 C   0  0  0  0  0  0  0  0  0  0  0  0
   -0.5103   30.8498    9.1765 N   0  0  0  0  0  0  0  0  0  0  0  0
   -1.7489   31.3678    9.2984 C   0  0  0  0  0  0  0  0  0  0  0  0
   -2.8810   30.6521    8.9540 C   0  0  0  0  0  0  0  0  0  0  0  0
   -2.8280   29.3900    8.4640 N   0  0  0  0  0  0  0  0  0  0  0  0
 18 19  1  0  0  0
 19 11  1  0  0  0
 11 12  1  0  0  0
 12 13  2  0  0  0
 13 14  1  0  0  0
 13 15  1  0  0  0
 15 16  2  0  0  0
 16 17  1  0  0  0
 17  7  1  0  0  0
  7  8  1  0  0  0
  8  9  2  0  0  0
  8  1  1  0  0  0
  1  2  1  0  0  0
  2  3  2  0  0  0
  3  4  1  0  0  0
  4  5  2  0  0  0
  5 20  1  0  0  0
 20 22  1  0  0  0
 22 23  2  0  0  0
 23 24  1  0  0  0
 24 25  2  0  0  0
 25 26  1  0  0  0
 26 27  2  0  0  0
  5  6  1  0  0  0
 17 11  2  0  0  0
  6  1  2  0  0  0
 27 22  1  0  0  0
  7 10  1  0  0  0
 20 21  1  0  0  0
M  END
> <minimizedAffinity>
-9.47269

$$$$
OCNT-2313250


 26 29  0  0  0  0  0  0  0  0999 V2000
   -4.0094   26.5010    4.8587 C   0  0  0  0  0  0  0  0  0  0  0  0
   -3.3444   26.5903    3.6335 C   0  0  0  0  0  0  0  0  0  0  0  0
   -3.5023   25.5953    2.6618 C   0  0  0  0  0  0  0  0  0  0  0  0
   -4.3172   24.4898    2.9156 C   0  0  0  0  0  0  0  0  0  0  0  0
   -5.0022   24.4042    4.1287 C   0  0  0  0  0  0  0  0  0  0  0  0
   -6.0430   23.0727    4.4810 Cl  0  0  0  0  0  0  0  0  0  0  0  0
   -4.8436   25.4006    5.0973 C   0  0  0  0  0  0  0  0  0  0  0  0
   -1.6227   27.4288    6.3724 O   0  0  0  0  0  0  0  0  0  0  0  0
   -2.7542   27.8599    6.5544 C   0  0  0  0  0  0  0  0  0  0  0  0
   -3.9030   27.4617    5.8867 N   0  0  0  0  0  0  0  0  0  0  0  0
   -4.7666   27.9102    6.1671 H   0  0  0  0  0  0  0  0  0  0  0  0
   -3.0619   28.9250    7.5998 C   0  0  0  0  0  0  0  0  0  0  0  0
   -2.1319   30.1318    7.5122 C   0  0  0  0  0  0  0  0  0  0  0  0
   -1.0315   30.1747    8.5875 C   0  0  0  0  0  0  0  0  0  0  0  0
   -1.2059   31.5781    9.1695 C   0  0  0  0  0  0  0  0  0  0  0  0
   -2.4448   31.6320   10.0621 C   0  0  0  0  0  0  0  0  0  0  0  0
   -3.5779   31.6032    9.0353 C   0  0  0  0  0  0  0  0  0  0  0  0
   -2.8126   31.4932    7.7175 C   0  0  0  0  0  0  0  0  0  0  0  0
   -1.6600   32.3198    8.0136 O   0  0  0  0  0  0  0  0  0  0  0  0
   -4.5170   23.5231    1.9563 O   0  0  0  0  0  0  0  0  0  0  0  0
   -5.5696   23.7051    1.0877 C   0  0  0  0  0  0  0  0  0  0  0  0
   -6.3643   22.5943    0.8280 C   0  0  0  0  0  0  0  0  0  0  0  0
   -7.4110   22.7415   -0.0638 C   0  0  0  0  0  0  0  0  0  0  0  0
   -7.6949   23.8974   -0.7026 N   0  0  0  0  0  0  0  0  0  0  0  0
   -6.8880   24.9503   -0.4470 C   0  0  0  0  0  0  0  0  0  0  0  0
   -5.8166   24.9054    0.4275 C   0  0  0  0  0  0  0  0  0  0  0  0
  8  9  2  0  0  0
  9 12  1  0  0  0
 12 13  1  0  0  0
 13 14  1  0  0  0
 14 15  1  0  0  0
 15 16  1  0  0  0
 16 17  1  0  0  0
 17 18  1  0  0  0
 18 19  1  0  0  0
  9 10  1  0  0  0
 10  1  1  0  0  0
  1  2  1  0  0  0
  2  3  2  0  0  0
  3  4  1  0  0  0
  4 20  1  0  0  0
 20 21  1  0  0  0
 21 22  2  0  0  0
 22 23  1  0  0  0
 23 24  2  0  0  0
 24 25  1  0  0  0
 25 26  2  0  0  0
  4  5  2  0  0  0
  5  6  1  0  0  0
  5  7  1  0  0  0
 18 13  1  0  0  0
  7  1  2  0  0  0
 19 15  1  0  0  0
 26 21  1  0  0  0
 10 11  1  0  0  0
M  END
> <minimizedAffinity>
-8.97936

$$$$
OCNT-2313251


 27 30  0  0  0  0  0  0  0  0999 V2000
   -3.0817   27.4661    6.5740 O   0  0  0  0  0  0  0  0  0  0  0  0
   -3.7916   28.3402    6.0942 C   0  0  0  0  0  0  0  0  0  0  0  0
   -4.6939   28.1605    5.0595 N   0  0  0  0  0  0  0  0  0  0  0  0
   -5.2769   28.9552    4.8261 H   0  0  0  0  0  0  0  0  0  0  0  0
   -4.9142   26.9937    4.2985 C   0  0  0  0  0  0  0  0  0  0  0  0
   -5.8861   26.1028    4.7677 C   0  0  0  0  0  0  0  0  0  0  0  0
   -6.1794   24.9214    4.0726 C   0  0  0  0  0  0  0  0  0  0  0  0
   -5.5009   24.6101    2.8855 C   0  0  0  0  0  0  0  0  0  0  0  0
   -4.5320   25.5068    2.4221 C   0  0  0  0  0  0  0  0  0  0  0  0
   -3.8380   25.2888    1.2961 F   0  0  0  0  0  0  0  0  0  0  0  0
   -4.2416   26.6849    3.1193 C   0  0  0  0  0  0  0  0  0  0  0  0
   -5.7940   23.4133    2.1731 N   0  0  0  0  0  0  0  0  0  0  0  0
   -5.4950   22.1137    2.5458 C   0  0  0  0  0  0  0  0  0  0  0  0
   -5.9656   21.2825    1.5571 C   0  0  0  0  0  0  0  0  0  0  0  0
   -6.5373   22.1484    0.6193 C   0  0  0  0  0  0  0  0  0  0  0  0
   -6.4391   23.4257    0.9814 N   0  0  0  0  0  0  0  0  0  0  0  0
   -3.7991   29.6774    6.6327 C   0  0  0  0  0  0  0  0  0  0  0  0
   -4.9118   30.4826    6.8058 C   0  0  0  0  0  0  0  0  0  0  0  0
   -4.4052   31.7337    7.1671 C   0  0  0  0  0  0  0  0  0  0  0  0
   -3.0768   31.7316    7.2512 N   0  0  0  0  0  0  0  0  0  0  0  0
   -2.7210   30.4260    7.0858 N   0  0  0  0  0  0  0  0  0  0  0  0
   -1.3804   30.0256    7.3706 C   0  0  0  0  0  0  0  0  0  0  0  0
   -0.4697   29.7073    6.3543 C   0  0  0  0  0  0  0  0  0  0  0  0
    0.8371   29.3269    6.6751 C   0  0  0  0  0  0  0  0  0  0  0  0
    1.2395   29.2457    8.0064 C   0  0  0  0  0  0  0  0  0  0  0  0
    0.3332   29.5315    9.0241 C   0  0  0  0  0  0  0  0  0  0  0  0
   -0.9735   29.9122    8.7104 C   0  0  0  0  0  0  0  0  0  0  0  0
  1  2  2  0  0  0
  2  3  1  0  0  0
  3  5  1  0  0  0
  5  6  1  0  0  0
  6  7  2  0  0  0
  7  8  1  0  0  0
  8 12  1  0  0  0
 12 13  1  0  0  0
 13 14  2  0  0  0
 14 15  1  0  0  0
 15 16  2  0  0  0
  8  9  2  0  0  0
  9 10  1  0  0  0
  9 11  1  0  0  0
  2 17  1  0  0  0
 17 18  2  0  0  0
 18 19  1  0  0  0
 19 20  2  0  0  0
 20 21  1  0  0  0
 21 22  1  0  0  0
 22 23  2  0  0  0
 23 24  1  0  0  0
 24 25  2  0  0  0
 25 26  1  0  0  0
 26 27  2  0  0  0
 11  5  2  0  0  0
 21 17  1  0  0  0
 27 22  1  0  0  0
 16 12  1  0  0  0
  3  4  1  0  0  0
M  END
> <minimizedAffinity>
-9.85981

$$$$
OCNT-2313255


 25 28  0  0  0  0  0  0  0  0999 V2000
   -5.4624   25.8082    3.8785 C   0  0  0  0  0  0  0  0  0  0  0  0
   -5.5261   27.3346    3.7703 C   0  0  0  0  0  0  0  0  0  0  0  0
   -4.8236   27.7885    5.0452 C   0  0  0  0  0  0  0  0  0  0  0  0
   -3.8649   26.7308    5.3428 N   0  0  0  0  0  0  0  0  0  0  0  0
   -2.7014   26.8343    6.0970 C   0  0  0  0  0  0  0  0  0  0  0  0
   -1.8427   25.9518    6.0225 O   0  0  0  0  0  0  0  0  0  0  0  0
   -4.0737   25.5832    4.4682 C   0  0  0  0  0  0  0  0  0  0  0  0
   -2.5009   28.0105    6.9267 C   0  0  0  0  0  0  0  0  0  0  0  0
   -1.3053   28.6406    7.2204 C   0  0  0  0  0  0  0  0  0  0  0  0
   -0.1082   28.2501    6.7120 N   0  0  0  0  0  0  0  0  0  0  0  0
   -1.4617   29.7597    8.1038 C   0  0  0  0  0  0  0  0  0  0  0  0
   -0.5549   30.7054    8.6328 C   0  0  0  0  0  0  0  0  0  0  0  0
   -1.0403   31.6901    9.4902 C   0  0  0  0  0  0  0  0  0  0  0  0
   -2.3910   31.6997    9.7900 C   0  0  0  0  0  0  0  0  0  0  0  0
   -3.3032   30.8257    9.3196 N   0  0  0  0  0  0  0  0  0  0  0  0
   -2.7908   29.8893    8.4925 C   0  0  0  0  0  0  0  0  0  0  0  0
   -3.7947   28.6947    7.8171 S   0  0  0  0  0  0  0  0  0  0  0  0
   -0.0291   27.3008    6.3377 H   0  0  0  0  0  0  0  0  0  0  0  0
    0.7540   28.5356    7.1673 H   0  0  0  0  0  0  0  0  0  0  0  0
   -6.2580   22.2181    0.4754 C   0  0  0  0  0  0  0  0  0  0  0  0
   -6.0473   23.5117    1.1608 C   0  0  0  0  0  0  0  0  0  0  0  0
   -5.8396   23.7453    2.5040 C   0  0  0  0  0  0  0  0  0  0  0  0
   -5.7002   25.0974    2.6465 N   0  0  0  0  0  0  0  0  0  0  0  0
   -5.8086   25.7627    1.4821 N   0  0  0  0  0  0  0  0  0  0  0  0
   -6.0185   24.7998    0.5825 C   0  0  0  0  0  0  0  0  0  0  0  0
 20 21  1  0  0  0
 21 22  2  0  0  0
 22 23  1  0  0  0
 23  1  1  0  0  0
  1  2  1  0  0  0
  2  3  1  0  0  0
  3  4  1  0  0  0
  4  5  1  0  0  0
  5  6  2  0  0  0
  5  8  1  0  0  0
  8  9  2  0  0  0
  9 10  1  0  0  0
  9 11  1  0  0  0
 11 12  1  0  0  0
 12 13  2  0  0  0
 13 14  1  0  0  0
 14 15  2  0  0  0
 15 16  1  0  0  0
 16 17  1  0  0  0
  4  7  1  0  0  0
 23 24  1  0  0  0
 24 25  2  0  0  0
 25 21  1  0  0  0
  7  1  1  0  0  0
 17  8  1  0  0  0
 16 11  2  0  0  0
 10 18  1  0  0  0
 10 19  1  0  0  0
M  END
> <minimizedAffinity>
-9.37935

$$$$
OCNT-2313260


 30 33  0  0  0  0  0  0  0  0999 V2000
   -5.2225   30.6824    7.1174 C   0  0  0  0  0  0  0  0  0  0  0  0
   -5.9008   31.4603    8.0389 C   0  0  0  0  0  0  0  0  0  0  0  0
   -7.2248   31.2720    7.8090 N   0  0  0  0  0  0  0  0  0  0  0  0
   -7.4762   30.4266    6.8028 N   0  0  0  0  0  0  0  0  0  0  0  0
   -6.2631   30.0107    6.3985 C   0  0  0  0  0  0  0  0  0  0  0  0
   -8.0124   31.6895    8.2944 H   0  0  0  0  0  0  0  0  0  0  0  0
   -6.1612   28.9901    5.3574 C   0  0  0  0  0  0  0  0  0  0  0  0
   -6.0101   29.3697    4.0154 C   0  0  0  0  0  0  0  0  0  0  0  0
   -5.8898   28.4024    3.0144 C   0  0  0  0  0  0  0  0  0  0  0  0
   -5.9254   27.0513    3.3494 C   0  0  0  0  0  0  0  0  0  0  0  0
   -5.7748   26.1570    2.3210 O   0  0  0  0  0  0  0  0  0  0  0  0
   -5.5038   24.8381    2.8096 C   0  0  0  0  0  0  0  0  0  0  0  0
   -6.4346   24.4880    3.9587 C   0  0  0  0  0  0  0  0  0  0  0  0
   -6.2041   25.3546    5.0754 O   0  0  0  0  0  0  0  0  0  0  0  0
   -6.1192   26.6653    4.6795 C   0  0  0  0  0  0  0  0  0  0  0  0
   -6.2270   27.6286    5.6821 C   0  0  0  0  0  0  0  0  0  0  0  0
   -3.1695   31.1803    6.0935 O   0  0  0  0  0  0  0  0  0  0  0  0
   -3.7717   30.6360    7.0144 C   0  0  0  0  0  0  0  0  0  0  0  0
   -3.1290   29.8913    7.9744 N   0  0  0  0  0  0  0  0  0  0  0  0
   -3.6687   29.3256    8.6152 H   0  0  0  0  0  0  0  0  0  0  0  0
   -1.6877   29.7115    7.9755 C   0  0  0  0  0  0  0  0  0  0  0  0
   -1.2608   28.2953    8.3951 C   0  0  0  0  0  0  0  0  0  0  0  0
   -2.1474   27.2681    7.8394 N   0  0  0  0  0  0  0  0  0  0  0  0
   -2.2304   26.4749    8.4707 H   0  0  0  0  0  0  0  0  0  0  0  0
   -1.8027   26.7975    6.5602 C   0  0  0  0  0  0  0  0  0  0  0  0
   -2.8110   26.3576    5.6938 C   0  0  0  0  0  0  0  0  0  0  0  0
   -2.5879   25.9014    4.4346 N   0  0  0  0  0  0  0  0  0  0  0  0
   -1.2965   25.9172    4.0498 C   0  0  0  0  0  0  0  0  0  0  0  0
   -0.2872   26.3645    4.8826 C   0  0  0  0  0  0  0  0  0  0  0  0
   -0.5191   26.8119    6.1404 N   0  0  0  0  0  0  0  0  0  0  0  0
 17 18  2  0  0  0
 18 19  1  0  0  0
 19 21  1  0  0  0
 21 22  1  0  0  0
 22 23  1  0  0  0
 23 25  1  0  0  0
 25 26  2  0  0  0
 26 27  1  0  0  0
 27 28  2  0  0  0
 28 29  1  0  0  0
 29 30  2  0  0  0
 18  1  1  0  0  0
  1  2  2  0  0  0
  2  3  1  0  0  0
  3  4  1  0  0  0
  4  5  2  0  0  0
  5  7  1  0  0  0
  7  8  1  0  0  0
  8  9  2  0  0  0
  9 10  1  0  0  0
 10 11  1  0  0  0
 11 12  1  0  0  0
 12 13  1  0  0  0
 13 14  1  0  0  0
 14 15  1  0  0  0
 15 16  1  0  0  0
 30 25  1  0  0  0
  5  1  1  0  0  0
 16  7  2  0  0  0
 15 10  2  0  0  0
 19 20  1  0  0  0
 23 24  1  0  0  0
  3  6  1  0  0  0
M  END
> <minimizedAffinity>
-8.65573

$$$$
OCNT-2313271


 25 26  0  0  0  0  0  0  0  0999 V2000
   -3.7438   30.5263    8.5667 C   0  0  0  0  0  0  0  0  0  0  0  0
   -3.8566   30.4951    9.7869 O   0  0  0  0  0  0  0  0  0  0  0  0
   -4.7479   30.2407    7.6755 N   0  0  0  0  0  0  0  0  0  0  0  0
   -4.5648   30.6058    6.7263 H   0  0  0  0  0  0  0  0  0  0  0  0
   -1.5407   29.7921    7.1802 C   0  0  0  0  0  0  0  0  0  0  0  0
   -2.3069   30.9010    6.4693 C   0  0  0  0  0  0  0  0  0  0  0  0
   -2.4015   30.7998    7.9716 C   0  0  0  0  0  0  0  0  0  0  0  0
    0.7127   29.1430    6.0705 C   0  0  0  0  0  0  0  0  0  0  0  0
   -0.0047   29.8705    7.2083 C   0  0  0  0  0  0  0  0  0  0  0  0
    0.5387   29.3811    8.5559 C   0  0  0  0  0  0  0  0  0  0  0  0
   -2.0812   28.4125    7.0557 C   0  0  0  0  0  0  0  0  0  0  0  0
   -1.7492   27.5487    7.9221 O   0  0  0  0  0  0  0  0  0  0  0  0
   -2.8498   28.2008    6.0613 O   0  0  0  0  0  0  0  0  0  0  0  0
   -6.1768   30.1387    8.0321 C   0  0  0  0  0  0  0  0  0  0  0  0
   -6.5244   31.3964    8.8557 C   0  0  0  0  0  0  0  0  0  0  0  0
   -6.3945   28.9018    8.9220 C   0  0  0  0  0  0  0  0  0  0  0  0
   -7.0489   30.0848    6.7386 C   0  0  0  0  0  0  0  0  0  0  0  0
   -6.6318   29.1046    5.6593 C   0  0  0  0  0  0  0  0  0  0  0  0
   -6.6052   27.7274    5.9176 C   0  0  0  0  0  0  0  0  0  0  0  0
   -6.2246   26.8257    4.9208 C   0  0  0  0  0  0  0  0  0  0  0  0
   -5.8707   27.2923    3.6514 C   0  0  0  0  0  0  0  0  0  0  0  0
   -5.9003   28.6638    3.3837 C   0  0  0  0  0  0  0  0  0  0  0  0
   -6.2813   29.5634    4.3821 C   0  0  0  0  0  0  0  0  0  0  0  0
   -5.4837   26.3670    2.6272 C   0  0  0  0  0  0  0  0  0  0  0  0
   -5.1724   25.6130    1.8007 N   0  0  0  0  0  0  0  0  0  0  0  0
  8  9  1  0  0  0
  9 10  1  0  0  0
  9  5  1  0  0  0
  5 11  1  0  0  0
 11 12  2  0  0  0
 11 13  1  0  0  0
  5  6  1  0  0  0
  6  7  1  0  0  0
  7  1  1  0  0  0
  1  2  2  0  0  0
  1  3  1  0  0  0
  3 14  1  0  0  0
 14 15  1  0  0  0
 14 16  1  0  0  0
 14 17  1  0  0  0
 17 18  1  0  0  0
 18 19  1  0  0  0
 19 20  2  0  0  0
 20 21  1  0  0  0
 21 24  1  0  0  0
 24 25  3  0  0  0
 21 22  2  0  0  0
 22 23  1  0  0  0
  7  5  1  0  0  0
 23 18  2  0  0  0
  3  4  1  0  0  0
M  CHG 1  13  -1
M  END
> <minimizedAffinity>
-8.78152

$$$$
OCNT-2313274


 25 27  0  0  0  0  0  0  0  0999 V2000
   -6.9333   30.4946    6.0544 O   0  0  0  0  0  0  0  0  0  0  0  0
   -6.0093   29.4166    5.8093 C   0  0  0  0  0  0  0  0  0  0  0  0
   -6.7628   31.1790    5.3805 H   0  0  0  0  0  0  0  0  0  0  0  0
   -4.5748   29.8405    6.2181 C   0  0  0  0  0  0  0  0  0  0  0  0
   -4.2216   31.2097    5.8043 N   0  0  0  0  0  0  0  0  0  0  0  0
   -3.5538   31.1469    5.0281 H   0  0  0  0  0  0  0  0  0  0  0  0
   -3.6114   32.0133    6.8795 C   0  0  0  0  0  0  0  0  0  0  0  0
   -2.3098   31.3506    7.3474 C   0  0  0  0  0  0  0  0  0  0  0  0
   -1.6758   32.1368    8.4962 C   0  0  0  0  0  0  0  0  0  0  0  0
   -2.6478   32.3311    9.6593 C   0  0  0  0  0  0  0  0  0  0  0  0
   -3.9639   32.9571    9.2062 C   0  0  0  0  0  0  0  0  0  0  0  0
   -4.5967   32.1619    8.0661 C   0  0  0  0  0  0  0  0  0  0  0  0
   -5.8013   32.8144    7.6549 O   0  0  0  0  0  0  0  0  0  0  0  0
   -5.6063   33.3305    6.8421 H   0  0  0  0  0  0  0  0  0  0  0  0
   -6.1040   29.0180    4.3264 C   0  0  0  0  0  0  0  0  0  0  0  0
   -6.0216   27.5329    4.0825 C   0  0  0  0  0  0  0  0  0  0  0  0
   -6.2104   26.6239    5.1281 C   0  0  0  0  0  0  0  0  0  0  0  0
   -6.1359   25.2491    4.8914 C   0  0  0  0  0  0  0  0  0  0  0  0
   -5.8681   24.7538    3.6055 C   0  0  0  0  0  0  0  0  0  0  0  0
   -5.7853   23.3749    3.3541 C   0  0  0  0  0  0  0  0  0  0  0  0
   -5.5152   22.8986    2.0697 C   0  0  0  0  0  0  0  0  0  0  0  0
   -5.3260   23.7938    1.0213 C   0  0  0  0  0  0  0  0  0  0  0  0
   -5.4063   25.1675    1.2550 C   0  0  0  0  0  0  0  0  0  0  0  0
   -5.6761   25.6632    2.5417 C   0  0  0  0  0  0  0  0  0  0  0  0
   -5.7568   27.0429    2.7945 C   0  0  0  0  0  0  0  0  0  0  0  0
  1  2  1  0  0  0
  2  4  1  0  0  0
  4  5  1  0  0  0
  5  7  1  0  0  0
  7  8  1  0  0  0
  8  9  1  0  0  0
  9 10  1  0  0  0
 10 11  1  0  0  0
 11 12  1  0  0  0
 12 13  1  0  0  0
  2 15  1  0  0  0
 15 16  1  0  0  0
 16 17  1  0  0  0
 17 18  2  0  0  0
 18 19  1  0  0  0
 19 20  2  0  0  0
 20 21  1  0  0  0
 21 22  2  0  0  0
 22 23  1  0  0  0
 23 24  2  0  0  0
 24 25  1  0  0  0
 12  7  1  0  0  0
 25 16  2  0  0  0
 24 19  1  0  0  0
  1  3  1  0  0  0
  5  6  1  0  0  0
 13 14  1  0  0  0
M  END
> <minimizedAffinity>
-10.00928

$$$$
OCNT-2313294


 28 30  0  0  0  0  0  0  0  0999 V2000
   -4.1231   27.2534    5.2838 N   0  0  0  0  0  0  0  0  0  0  0  0
   -4.6586   28.0899    5.5410 H   0  0  0  0  0  0  0  0  0  0  0  0
   -4.4044   26.8585    3.6664 S   0  0  0  0  0  0  0  0  0  0  0  0
   -5.1747   27.9532    3.1193 O   0  0  0  0  0  0  0  0  0  0  0  0
   -3.1355   26.4401    3.1139 O   0  0  0  0  0  0  0  0  0  0  0  0
   -5.7932   24.6910    2.6450 C   0  0  0  0  0  0  0  0  0  0  0  0
   -6.6377   23.5822    2.7856 C   0  0  0  0  0  0  0  0  0  0  0  0
   -7.1922   23.2680    4.0291 C   0  0  0  0  0  0  0  0  0  0  0  0
   -8.2283   21.9013    4.1788 Cl  0  0  0  0  0  0  0  0  0  0  0  0
   -6.9243   24.0520    5.1466 C   0  0  0  0  0  0  0  0  0  0  0  0
   -6.0819   25.1552    5.0237 C   0  0  0  0  0  0  0  0  0  0  0  0
   -5.5079   25.4655    3.7799 C   0  0  0  0  0  0  0  0  0  0  0  0
   -6.0994   25.1898    0.3226 C   0  0  0  0  0  0  0  0  0  0  0  0
   -5.2490   25.0888    1.4571 O   0  0  0  0  0  0  0  0  0  0  0  0
   -2.7185   27.3052    5.7305 C   0  0  0  0  0  0  0  0  0  0  0  0
   -2.3741   25.9530    6.3504 C   0  0  0  0  0  0  0  0  0  0  0  0
   -2.6243   28.3915    6.7651 C   0  0  0  0  0  0  0  0  0  0  0  0
   -3.6525   28.8955    7.4262 N   0  0  0  0  0  0  0  0  0  0  0  0
   -3.1330   29.8733    8.2337 C   0  0  0  0  0  0  0  0  0  0  0  0
   -3.7920   30.7199    9.1368 C   0  0  0  0  0  0  0  0  0  0  0  0
   -3.0397   31.6497    9.8627 C   0  0  0  0  0  0  0  0  0  0  0  0
   -1.6576   31.7340    9.6929 C   0  0  0  0  0  0  0  0  0  0  0  0
   -0.9817   30.8970    8.7965 C   0  0  0  0  0  0  0  0  0  0  0  0
   -1.7527   29.9726    8.0785 C   0  0  0  0  0  0  0  0  0  0  0  0
   -1.4527   29.0125    7.1375 N   0  0  0  0  0  0  0  0  0  0  0  0
   -0.1331   28.6670    6.6578 C   0  0  0  0  0  0  0  0  0  0  0  0
    0.4506   29.7429    6.0623 F   0  0  0  0  0  0  0  0  0  0  0  0
    0.6894   28.3004    7.6719 F   0  0  0  0  0  0  0  0  0  0  0  0
 13 14  1  0  0  0
 14  6  1  0  0  0
  6  7  1  0  0  0
  7  8  2  0  0  0
  8  9  1  0  0  0
  8 10  1  0  0  0
 10 11  2  0  0  0
 11 12  1  0  0  0
 12  3  1  0  0  0
  3  4  2  0  0  0
  3  5  2  0  0  0
  3  1  1  0  0  0
  1 15  1  0  0  0
 15 16  1  0  0  0
 15 17  1  0  0  0
 17 18  2  0  0  0
 18 19  1  0  0  0
 19 20  2  0  0  0
 20 21  1  0  0  0
 21 22  2  0  0  0
 22 23  1  0  0  0
 23 24  2  0  0  0
 24 25  1  0  0  0
 25 26  1  0  0  0
 26 27  1  0  0  0
 26 28  1  0  0  0
 12  6  2  0  0  0
 25 17  1  0  0  0
 24 19  1  0  0  0
  1  2  1  0  0  0
M  END
> <minimizedAffinity>
-9.22948

$$$$
OCNT-2313300


 23 25  0  0  0  0  0  0  0  0999 V2000
   -2.5035   27.8488    7.1003 C   0  0  0  0  0  0  0  0  0  0  0  0
   -2.0433   26.7477    7.3774 O   0  0  0  0  0  0  0  0  0  0  0  0
   -3.3709   28.1278    6.0630 N   0  0  0  0  0  0  0  0  0  0  0  0
   -3.7872   29.0472    6.0847 H   0  0  0  0  0  0  0  0  0  0  0  0
   -0.9674   29.5786    8.2506 C   0  0  0  0  0  0  0  0  0  0  0  0
   -2.2071   29.0166    7.9394 C   0  0  0  0  0  0  0  0  0  0  0  0
   -3.1826   29.7676    8.6629 C   0  0  0  0  0  0  0  0  0  0  0  0
   -2.5357   30.7742    9.3371 C   0  0  0  0  0  0  0  0  0  0  0  0
   -1.1991   30.6551    9.0811 N   0  0  0  0  0  0  0  0  0  0  0  0
   -0.4819   31.2488    9.4785 H   0  0  0  0  0  0  0  0  0  0  0  0
    0.7155   29.3115    6.4190 C   0  0  0  0  0  0  0  0  0  0  0  0
    0.4388   29.1896    7.9097 C   0  0  0  0  0  0  0  0  0  0  0  0
   -3.8178   27.2569    5.0518 C   0  0  0  0  0  0  0  0  0  0  0  0
   -5.1907   27.2316    4.7884 C   0  0  0  0  0  0  0  0  0  0  0  0
   -5.7185   26.3986    3.7930 C   0  0  0  0  0  0  0  0  0  0  0  0
   -4.8752   25.5742    3.0374 C   0  0  0  0  0  0  0  0  0  0  0  0
   -3.4991   25.6038    3.2984 C   0  0  0  0  0  0  0  0  0  0  0  0
   -2.9784   26.4404    4.2966 C   0  0  0  0  0  0  0  0  0  0  0  0
   -5.4065   24.7244    2.0235 N   0  0  0  0  0  0  0  0  0  0  0  0
   -5.3557   23.3463    1.9722 C   0  0  0  0  0  0  0  0  0  0  0  0
   -5.9997   22.9791    0.8145 C   0  0  0  0  0  0  0  0  0  0  0  0
   -6.4495   24.0764    0.1425 N   0  0  0  0  0  0  0  0  0  0  0  0
   -6.0834   25.1012    0.8815 C   0  0  0  0  0  0  0  0  0  0  0  0
 11 12  1  0  0  0
 12  5  1  0  0  0
  5  6  2  0  0  0
  6  1  1  0  0  0
  1  2  2  0  0  0
  1  3  1  0  0  0
  3 13  1  0  0  0
 13 14  1  0  0  0
 14 15  2  0  0  0
 15 16  1  0  0  0
 16 19  1  0  0  0
 19 20  1  0  0  0
 20 21  2  0  0  0
 21 22  1  0  0  0
 22 23  2  0  0  0
 16 17  2  0  0  0
 17 18  1  0  0  0
  6  7  1  0  0  0
  7  8  2  0  0  0
  8  9  1  0  0  0
  9  5  1  0  0  0
 18 13  2  0  0  0
 23 19  1  0  0  0
  3  4  1  0  0  0
  9 10  1  0  0  0
M  END
> <minimizedAffinity>
-8.08099

$$$$
OCNT-2313305


 24 25  0  0  0  0  0  0  0  0999 V2000
   -4.3463   28.7503    5.3314 N   0  0  0  0  0  0  0  0  0  0  0  0
   -4.2134   29.5005    6.4701 C   0  0  0  0  0  0  0  0  0  0  0  0
   -4.5752   29.1826    7.5956 O   0  0  0  0  0  0  0  0  0  0  0  0
   -3.6162   30.7126    6.1953 N   0  0  0  0  0  0  0  0  0  0  0  0
   -4.1617   29.1885    4.4362 H   0  0  0  0  0  0  0  0  0  0  0  0
   -3.0596   30.7570    5.3556 H   0  0  0  0  0  0  0  0  0  0  0  0
   -5.9165   23.3352    4.9315 C   0  0  0  0  0  0  0  0  0  0  0  0
   -5.5481   24.7857    5.0242 C   0  0  0  0  0  0  0  0  0  0  0  0
   -6.5452   25.7536    5.0850 C   0  0  0  0  0  0  0  0  0  0  0  0
   -6.1820   27.0948    5.1766 C   0  0  0  0  0  0  0  0  0  0  0  0
   -4.8344   27.4325    5.2016 C   0  0  0  0  0  0  0  0  0  0  0  0
   -3.8786   26.3934    5.1281 C   0  0  0  0  0  0  0  0  0  0  0  0
   -4.2285   25.0890    5.0433 N   0  0  0  0  0  0  0  0  0  0  0  0
   -2.4908   26.7647    5.1107 N   0  0  0  0  0  0  0  0  0  0  0  0
   -1.8542   26.0275    4.0101 C   0  0  0  0  0  0  0  0  0  0  0  0
   -1.8862   26.4615    6.4133 C   0  0  0  0  0  0  0  0  0  0  0  0
   -3.3112   31.6568    7.2442 C   0  0  0  0  0  0  0  0  0  0  0  0
   -1.8711   31.5339    7.6260 C   0  0  0  0  0  0  0  0  0  0  0  0
   -1.3775   32.0411    8.9606 C   0  0  0  0  0  0  0  0  0  0  0  0
   -1.4498   30.5518    8.7014 C   0  0  0  0  0  0  0  0  0  0  0  0
   -0.2376   29.7126    8.5340 C   0  0  0  0  0  0  0  0  0  0  0  0
   -0.5233   28.4086    8.7441 F   0  0  0  0  0  0  0  0  0  0  0  0
    0.7218   30.0797    9.4126 F   0  0  0  0  0  0  0  0  0  0  0  0
    0.2787   29.8252    7.2872 F   0  0  0  0  0  0  0  0  0  0  0  0
  7  8  1  0  0  0
  8  9  2  0  0  0
  9 10  1  0  0  0
 10 11  2  0  0  0
 11  1  1  0  0  0
  1  2  1  0  0  0
  2  3  2  0  0  0
  2  4  1  0  0  0
  4 17  1  0  0  0
 17 18  1  0  0  0
 18 19  1  0  0  0
 19 20  1  0  0  0
 20 21  1  0  0  0
 21 22  1  0  0  0
 21 23  1  0  0  0
 21 24  1  0  0  0
 11 12  1  0  0  0
 12 14  1  0  0  0
 14 15  1  0  0  0
 14 16  1  0  0  0
 12 13  2  0  0  0
 13  8  1  0  0  0
 20 18  1  0  0  0
  1  5  1  0  0  0
  4  6  1  0  0  0
M  END
> <minimizedAffinity>
-8.20502

$$$$
OCNT-2313325


 32 35  0  0  0  0  0  0  0  0999 V2000
   -6.2914   29.4165    4.7357 O   0  0  0  0  0  0  0  0  0  0  0  0
   -6.2113   28.3353    5.3150 C   0  0  0  0  0  0  0  0  0  0  0  0
   -6.3809   28.2267    6.6689 N   0  0  0  0  0  0  0  0  0  0  0  0
   -5.9628   27.1405    4.6623 N   0  0  0  0  0  0  0  0  0  0  0  0
   -5.7227   27.2134    3.2169 C   0  0  0  0  0  0  0  0  0  0  0  0
   -6.0399   25.8951    2.4942 C   0  0  0  0  0  0  0  0  0  0  0  0
   -5.3724   24.7613    3.1522 N   0  0  0  0  0  0  0  0  0  0  0  0
   -5.6097   24.6578    4.5988 C   0  0  0  0  0  0  0  0  0  0  0  0
   -5.3115   25.9909    5.3093 C   0  0  0  0  0  0  0  0  0  0  0  0
   -6.8053   27.3666    6.9817 H   0  0  0  0  0  0  0  0  0  0  0  0
   -5.5158   23.5479    2.4743 C   0  0  0  0  0  0  0  0  0  0  0  0
   -5.8959   23.5653    1.1848 N   0  0  0  0  0  0  0  0  0  0  0  0
   -6.0641   22.3857    0.5583 C   0  0  0  0  0  0  0  0  0  0  0  0
   -5.8721   21.1726    1.1637 C   0  0  0  0  0  0  0  0  0  0  0  0
   -5.4876   21.2388    2.4773 C   0  0  0  0  0  0  0  0  0  0  0  0
   -5.3040   22.3977    3.1403 N   0  0  0  0  0  0  0  0  0  0  0  0
   -6.7138   29.3995    7.4798 C   0  0  0  0  0  0  0  0  0  0  0  0
   -6.8602   29.0457    8.9594 C   0  0  0  0  0  0  0  0  0  0  0  0
   -5.4146   28.9685    9.4537 C   0  0  0  0  0  0  0  0  0  0  0  0
   -4.6780   29.8828    8.5778 N   0  0  0  0  0  0  0  0  0  0  0  0
   -5.5468   30.4021    7.5136 C   0  0  0  0  0  0  0  0  0  0  0  0
   -3.3918   30.3029    8.8158 C   0  0  0  0  0  0  0  0  0  0  0  0
   -3.1232   31.4591    9.5665 C   0  0  0  0  0  0  0  0  0  0  0  0
   -1.8181   31.8803    9.8355 C   0  0  0  0  0  0  0  0  0  0  0  0
   -0.7407   31.1480    9.3512 C   0  0  0  0  0  0  0  0  0  0  0  0
   -0.9616   30.0069    8.5823 C   0  0  0  0  0  0  0  0  0  0  0  0
   -2.2771   29.5940    8.3301 C   0  0  0  0  0  0  0  0  0  0  0  0
    0.1787   29.3861    8.1549 O   0  0  0  0  0  0  0  0  0  0  0  0
    0.4098   29.3313    6.7543 C   0  0  0  0  0  0  0  0  0  0  0  0
   -0.2659   30.3065    6.1062 F   0  0  0  0  0  0  0  0  0  0  0  0
    1.7297   29.5137    6.5239 F   0  0  0  0  0  0  0  0  0  0  0  0
    0.0619   28.1255    6.2463 F   0  0  0  0  0  0  0  0  0  0  0  0
  1  2  2  0  0  0
  2  3  1  0  0  0
  3 17  1  0  0  0
 17 18  1  0  0  0
 18 19  1  0  0  0
 19 20  1  0  0  0
 20 22  1  0  0  0
 22 23  2  0  0  0
 23 24  1  0  0  0
 24 25  2  0  0  0
 25 26  1  0  0  0
 26 28  1  0  0  0
 28 29  1  0  0  0
 29 30  1  0  0  0
 29 31  1  0  0  0
 29 32  1  0  0  0
 26 27  2  0  0  0
 20 21  1  0  0  0
  2  4  1  0  0  0
  4  5  1  0  0  0
  5  6  1  0  0  0
  6  7  1  0  0  0
  7 11  1  0  0  0
 11 12  2  0  0  0
 12 13  1  0  0  0
 13 14  2  0  0  0
 14 15  1  0  0  0
 15 16  2  0  0  0
  7  8  1  0  0  0
  8  9  1  0  0  0
 21 17  1  0  0  0
  9  4  1  0  0  0
 27 22  1  0  0  0
 16 11  1  0  0  0
  3 10  1  0  0  0
M  END
> <minimizedAffinity>
-10.43413

$$$$
OCNT-2313360


 25 28  0  0  0  0  0  0  0  0999 V2000
   -5.7171   26.6324    3.2867 C   0  0  0  0  0  0  0  0  0  0  0  0
   -5.7403   28.0028    3.0125 C   0  0  0  0  0  0  0  0  0  0  0  0
   -6.1087   28.9023    4.0151 C   0  0  0  0  0  0  0  0  0  0  0  0
   -6.4401   28.4414    5.2978 C   0  0  0  0  0  0  0  0  0  0  0  0
   -6.3819   27.0639    5.5653 C   0  0  0  0  0  0  0  0  0  0  0  0
   -6.0123   26.1604    4.5680 C   0  0  0  0  0  0  0  0  0  0  0  0
   -3.7810   25.5622    1.8987 O   0  0  0  0  0  0  0  0  0  0  0  0
   -5.2218   25.4862    2.0160 S   0  0  0  0  0  0  0  0  0  0  0  0
   -6.0800   25.7091    0.8711 O   0  0  0  0  0  0  0  0  0  0  0  0
   -5.6136   23.9771    2.6714 N   0  0  0  0  0  0  0  0  0  0  0  0
   -6.8511   23.2966    2.1992 C   0  0  0  0  0  0  0  0  0  0  0  0
   -6.5143   21.9568    1.5362 C   0  0  0  0  0  0  0  0  0  0  0  0
   -5.8287   21.0422    2.4037 O   0  0  0  0  0  0  0  0  0  0  0  0
   -5.0491   21.6906    3.4194 C   0  0  0  0  0  0  0  0  0  0  0  0
   -4.4927   23.0457    2.9704 C   0  0  0  0  0  0  0  0  0  0  0  0
   -6.8350   29.4110    6.3895 C   0  0  0  0  0  0  0  0  0  0  0  0
   -5.9484   30.5771    6.3912 N   0  0  0  0  0  0  0  0  0  0  0  0
   -6.5272   31.4063    6.5239 H   0  0  0  0  0  0  0  0  0  0  0  0
   -4.9072   30.4104    7.4147 C   0  0  0  0  0  0  0  0  0  0  0  0
   -3.5403   30.2003    6.6943 C   0  0  0  0  0  0  0  0  0  0  0  0
   -3.2997   31.7316    6.7653 C   0  0  0  0  0  0  0  0  0  0  0  0
   -4.3763   31.7632    7.8337 C   0  0  0  0  0  0  0  0  0  0  0  0
   -3.8992   31.9238    9.2692 C   0  0  0  0  0  0  0  0  0  0  0  0
   -4.3157   33.4106    9.1424 C   0  0  0  0  0  0  0  0  0  0  0  0
   -5.2426   32.9924    7.9729 C   0  0  0  0  0  0  0  0  0  0  0  0
  7  8  2  0  0  0
  8  9  2  0  0  0
  8  1  1  0  0  0
  1  2  1  0  0  0
  2  3  2  0  0  0
  3  4  1  0  0  0
  4 16  1  0  0  0
 16 17  1  0  0  0
 17 19  1  0  0  0
 19 20  1  0  0  0
 20 21  1  0  0  0
 21 22  1  0  0  0
 22 23  1  0  0  0
 23 24  1  0  0  0
 24 25  1  0  0  0
  4  5  2  0  0  0
  5  6  1  0  0  0
  8 10  1  0  0  0
 10 11  1  0  0  0
 11 12  1  0  0  0
 12 13  1  0  0  0
 13 14  1  0  0  0
 14 15  1  0  0  0
  6  1  2  0  0  0
 15 10  1  0  0  0
 22 19  1  0  0  0
 25 22  1  0  0  0
 17 18  1  0  0  0
M  END
> <minimizedAffinity>
-8.99333

$$$$
OCNT-2313362


 23 26  0  0  0  0  0  0  0  0999 V2000
   -7.6980   30.1013    5.9282 O   0  0  0  0  0  0  0  0  0  0  0  0
   -6.5784   29.3683    6.4751 S   0  0  0  0  0  0  0  0  0  0  0  0
   -6.6325   28.7303    7.7693 O   0  0  0  0  0  0  0  0  0  0  0  0
   -6.2872   28.0752    5.3160 C   0  0  0  0  0  0  0  0  0  0  0  0
   -6.0822   28.0924    3.9521 C   0  0  0  0  0  0  0  0  0  0  0  0
   -6.0504   29.4289    2.9096 Cl  0  0  0  0  0  0  0  0  0  0  0  0
   -5.9018   26.7443    3.5953 C   0  0  0  0  0  0  0  0  0  0  0  0
   -5.9974   25.9314    4.6482 N   0  0  0  0  0  0  0  0  0  0  0  0
   -6.2179   26.7673    5.7286 O   0  0  0  0  0  0  0  0  0  0  0  0
   -5.6504   26.2258    2.1529 C   0  0  0  0  0  0  0  0  0  0  0  0
   -4.4996   25.2850    1.8989 C   0  0  0  0  0  0  0  0  0  0  0  0
   -5.9090   24.7764    1.8274 C   0  0  0  0  0  0  0  0  0  0  0  0
   -5.2718   30.4337    6.4423 N   0  0  0  0  0  0  0  0  0  0  0  0
   -5.4685   31.1890    5.7825 H   0  0  0  0  0  0  0  0  0  0  0  0
   -4.6441   30.8847    7.7116 C   0  0  0  0  0  0  0  0  0  0  0  0
   -5.6960   31.5328    8.6355 C   0  0  0  0  0  0  0  0  0  0  0  0
   -5.0329   32.7710    9.2167 C   0  0  0  0  0  0  0  0  0  0  0  0
   -4.1877   33.2765    8.0635 C   0  0  0  0  0  0  0  0  0  0  0  0
   -3.6281   32.0164    7.3948 C   0  0  0  0  0  0  0  0  0  0  0  0
   -2.3038   31.5388    7.9975 C   0  0  0  0  0  0  0  0  0  0  0  0
   -2.6780   30.5589    9.0141 N   0  0  0  0  0  0  0  0  0  0  0  0
   -3.7808   29.8134    8.4024 C   0  0  0  0  0  0  0  0  0  0  0  0
   -1.8960   29.9383    9.2212 H   0  0  0  0  0  0  0  0  0  0  0  0
  1  2  2  0  0  0
  2  3  2  0  0  0
  2 13  1  0  0  0
 15 13  1  0  0  0
 15 16  1  0  0  0
 16 17  1  0  0  0
 17 18  1  0  0  0
 18 19  1  0  0  0
 19 20  1  0  0  0
 20 21  1  0  0  0
 21 22  1  0  0  0
  2  4  1  0  0  0
  4  5  2  0  0  0
  5  6  1  0  0  0
  5  7  1  0  0  0
  7 10  1  0  0  0
 10 11  1  0  0  0
 11 12  1  0  0  0
  7  8  2  0  0  0
  8  9  1  0  0  0
 19 15  1  0  0  0
  9  4  1  0  0  0
 22 15  1  0  0  0
 12 10  1  0  0  0
 13 14  1  0  0  0
 21 23  1  0  0  0
M  END
> <minimizedAffinity>
-7.85592

$$$$
OCNT-2313374


 28 31  0  0  0  0  0  0  0  0999 V2000
   -5.2465   26.2929    4.3301 N   0  0  0  0  0  0  0  0  0  0  0  0
   -4.0822   26.8048    4.8643 C   0  0  0  0  0  0  0  0  0  0  0  0
   -2.9380   26.4937    4.5601 O   0  0  0  0  0  0  0  0  0  0  0  0
   -4.3683   27.7340    5.8504 N   0  0  0  0  0  0  0  0  0  0  0  0
   -6.0820   26.4952    4.8585 H   0  0  0  0  0  0  0  0  0  0  0  0
   -5.1865   28.2907    5.6571 H   0  0  0  0  0  0  0  0  0  0  0  0
   -5.4011   23.0470    2.4584 C   0  0  0  0  0  0  0  0  0  0  0  0
   -5.6533   23.5354    1.1698 C   0  0  0  0  0  0  0  0  0  0  0  0
   -5.7534   24.9085    0.9419 C   0  0  0  0  0  0  0  0  0  0  0  0
   -5.6061   25.8021    2.0056 C   0  0  0  0  0  0  0  0  0  0  0  0
   -5.3635   25.3327    3.3018 C   0  0  0  0  0  0  0  0  0  0  0  0
   -5.2357   23.9552    3.5159 C   0  0  0  0  0  0  0  0  0  0  0  0
   -6.0015   20.7564    1.7789 N   0  0  0  0  0  0  0  0  0  0  0  0
   -5.3067   21.5671    2.6390 C   0  0  0  0  0  0  0  0  0  0  0  0
   -4.6192   21.0799    3.5300 O   0  0  0  0  0  0  0  0  0  0  0  0
   -5.8466   19.7586    1.8574 H   0  0  0  0  0  0  0  0  0  0  0  0
   -6.4854   21.0846    0.9474 H   0  0  0  0  0  0  0  0  0  0  0  0
   -3.2724   28.4233    6.5107 C   0  0  0  0  0  0  0  0  0  0  0  0
   -3.7423   29.6952    7.2375 C   0  0  0  0  0  0  0  0  0  0  0  0
   -3.2322   29.7345    8.7027 C   0  0  0  0  0  0  0  0  0  0  0  0
   -1.7043   29.9398    8.7439 C   0  0  0  0  0  0  0  0  0  0  0  0
   -1.3263   31.2601    8.0483 C   0  0  0  0  0  0  0  0  0  0  0  0
   -2.0153   32.4280    8.7753 C   0  0  0  0  0  0  0  0  0  0  0  0
   -3.5429   32.2426    8.7382 C   0  0  0  0  0  0  0  0  0  0  0  0
   -3.9041   30.9163    9.4311 C   0  0  0  0  0  0  0  0  0  0  0  0
   -4.0120   32.1942    7.2735 C   0  0  0  0  0  0  0  0  0  0  0  0
   -3.3337   31.0199    6.5342 C   0  0  0  0  0  0  0  0  0  0  0  0
   -1.8069   31.2268    6.5880 C   0  0  0  0  0  0  0  0  0  0  0  0
 13 14  1  0  0  0
 14 15  2  0  0  0
 14  7  1  0  0  0
  7  8  1  0  0  0
  8  9  2  0  0  0
  9 10  1  0  0  0
 10 11  2  0  0  0
 11  1  1  0  0  0
  1  2  1  0  0  0
  2  3  2  0  0  0
  2  4  1  0  0  0
  4 18  1  0  0  0
 18 19  1  0  0  0
 19 20  1  0  0  0
 20 21  1  0  0  0
 21 22  1  0  0  0
 22 23  1  0  0  0
 23 24  1  0  0  0
 24 25  1  0  0  0
 24 26  1  0  0  0
 26 27  1  0  0  0
 27 28  1  0  0  0
 11 12  1  0  0  0
 12  7  2  0  0  0
 27 19  1  0  0  0
 25 20  1  0  0  0
 28 22  1  0  0  0
 13 16  1  0  0  0
 13 17  1  0  0  0
  1  5  1  0  0  0
  4  6  1  0  0  0
M  END
> <minimizedAffinity>
-9.82211

$$$$
OCNT-2313383


 25 27  0  0  0  0  0  0  0  0999 V2000
   -4.1751   26.0965    5.2329 N   0  0  0  0  0  0  0  0  0  0  0  0
   -4.0238   25.6284    3.9430 C   0  0  0  0  0  0  0  0  0  0  0  0
   -3.3779   26.2130    3.0766 O   0  0  0  0  0  0  0  0  0  0  0  0
   -4.6518   24.3966    3.6976 N   0  0  0  0  0  0  0  0  0  0  0  0
   -4.4525   25.3991    5.9040 H   0  0  0  0  0  0  0  0  0  0  0  0
   -2.1908   30.8685    7.4456 C   0  0  0  0  0  0  0  0  0  0  0  0
   -2.7573   29.6622    6.8637 N   0  0  0  0  0  0  0  0  0  0  0  0
   -1.9443   28.5570    6.7089 C   0  0  0  0  0  0  0  0  0  0  0  0
   -2.4135   27.4201    6.1823 C   0  0  0  0  0  0  0  0  0  0  0  0
   -3.7951   27.3180    5.7529 C   0  0  0  0  0  0  0  0  0  0  0  0
   -4.6037   28.3777    5.9056 C   0  0  0  0  0  0  0  0  0  0  0  0
   -4.0995   29.6502    6.4909 C   0  0  0  0  0  0  0  0  0  0  0  0
   -4.8679   30.6002    6.6175 O   0  0  0  0  0  0  0  0  0  0  0  0
   -5.5410   23.6850    4.6638 C   0  0  0  0  0  0  0  0  0  0  0  0
   -7.0568   23.6782    4.2974 C   0  0  0  0  0  0  0  0  0  0  0  0
   -7.1232   22.2683    4.9125 C   0  0  0  0  0  0  0  0  0  0  0  0
   -5.6327   22.1346    4.5508 C   0  0  0  0  0  0  0  0  0  0  0  0
   -4.2315   23.6923    2.4812 C   0  0  0  0  0  0  0  0  0  0  0  0
   -5.2936   23.7438    1.4055 C   0  0  0  0  0  0  0  0  0  0  0  0
   -5.9349   22.5674    0.9822 C   0  0  0  0  0  0  0  0  0  0  0  0
   -6.9277   22.6075   -0.0004 C   0  0  0  0  0  0  0  0  0  0  0  0
   -7.2913   23.8251   -0.5709 C   0  0  0  0  0  0  0  0  0  0  0  0
   -6.6574   24.9896   -0.1557 C   0  0  0  0  0  0  0  0  0  0  0  0
   -7.0060   26.1614   -0.7035 F   0  0  0  0  0  0  0  0  0  0  0  0
   -5.6664   24.9614    0.8210 C   0  0  0  0  0  0  0  0  0  0  0  0
  6  7  1  0  0  0
  7  8  1  0  0  0
  8  9  2  0  0  0
  9 10  1  0  0  0
 10  1  1  0  0  0
  1  2  1  0  0  0
  2  3  2  0  0  0
  2  4  1  0  0  0
  4 18  1  0  0  0
 18 19  1  0  0  0
 19 20  2  0  0  0
 20 21  1  0  0  0
 21 22  2  0  0  0
 22 23  1  0  0  0
 23 24  1  0  0  0
 23 25  2  0  0  0
  4 14  1  0  0  0
 14 15  1  0  0  0
 15 16  1  0  0  0
 16 17  1  0  0  0
 10 11  2  0  0  0
 11 12  1  0  0  0
 12 13  2  0  0  0
 12  7  1  0  0  0
 25 19  1  0  0  0
 17 14  1  0  0  0
  1  5  1  0  0  0
M  END
> <minimizedAffinity>
-9.12371

$$$$
OCNT-2313386


 31 33  0  0  0  0  0  0  0  0999 V2000
   -6.5666   30.1384    5.7422 N   0  0  0  0  0  0  0  0  0  0  0  0
   -6.4491   28.7975    5.4408 C   0  0  0  0  0  0  0  0  0  0  0  0
   -6.7563   27.9058    6.2230 O   0  0  0  0  0  0  0  0  0  0  0  0
   -6.6063   30.7819    4.9594 H   0  0  0  0  0  0  0  0  0  0  0  0
   -7.2994   30.5562    6.9229 C   0  0  0  0  0  0  0  0  0  0  0  0
   -5.4667   32.1168    7.3413 N   0  0  0  0  0  0  0  0  0  0  0  0
   -6.3271   31.2070    7.9102 C   0  0  0  0  0  0  0  0  0  0  0  0
   -6.3572   30.9582    9.1148 O   0  0  0  0  0  0  0  0  0  0  0  0
   -5.5495   32.3357    6.3577 H   0  0  0  0  0  0  0  0  0  0  0  0
   -4.5429   32.8996    8.1289 C   0  0  0  0  0  0  0  0  0  0  0  0
   -0.8586   30.7091    8.6971 C   0  0  0  0  0  0  0  0  0  0  0  0
   -1.4394   31.3918    9.7657 C   0  0  0  0  0  0  0  0  0  0  0  0
   -2.6299   32.1057    9.5825 C   0  0  0  0  0  0  0  0  0  0  0  0
   -3.2512   32.1507    8.3279 C   0  0  0  0  0  0  0  0  0  0  0  0
   -2.6669   31.4569    7.2611 C   0  0  0  0  0  0  0  0  0  0  0  0
   -1.4803   30.7443    7.4472 C   0  0  0  0  0  0  0  0  0  0  0  0
    0.6054   29.1965    7.5923 C   0  0  0  0  0  0  0  0  0  0  0  0
    0.2946   29.9758    8.7405 O   0  0  0  0  0  0  0  0  0  0  0  0
   -5.8728   28.5552    4.0580 C   0  0  0  0  0  0  0  0  0  0  0  0
   -6.0634   27.1254    3.5570 C   0  0  0  0  0  0  0  0  0  0  0  0
   -4.8185   26.5815    2.8473 C   0  0  0  0  0  0  0  0  0  0  0  0
   -4.9836   25.1473    2.4526 C   0  0  0  0  0  0  0  0  0  0  0  0
   -4.3949   24.0605    3.0688 C   0  0  0  0  0  0  0  0  0  0  0  0
   -4.7878   22.9272    2.4109 N   0  0  0  0  0  0  0  0  0  0  0  0
   -5.6250   23.2475    1.3680 C   0  0  0  0  0  0  0  0  0  0  0  0
   -6.2593   22.4199    0.4333 C   0  0  0  0  0  0  0  0  0  0  0  0
   -7.0657   23.0305   -0.5314 C   0  0  0  0  0  0  0  0  0  0  0  0
   -7.2288   24.4135   -0.5584 C   0  0  0  0  0  0  0  0  0  0  0  0
   -6.5863   25.2260    0.3831 C   0  0  0  0  0  0  0  0  0  0  0  0
   -5.7680   24.6354    1.3686 C   0  0  0  0  0  0  0  0  0  0  0  0
   -4.5060   21.9873    2.6508 H   0  0  0  0  0  0  0  0  0  0  0  0
 17 18  1  0  0  0
 18 11  1  0  0  0
 11 12  1  0  0  0
 12 13  2  0  0  0
 13 14  1  0  0  0
 14 10  1  0  0  0
 10  6  1  0  0  0
  6  7  1  0  0  0
  7  8  2  0  0  0
  7  5  1  0  0  0
  5  1  1  0  0  0
  1  2  1  0  0  0
  2  3  2  0  0  0
  2 19  1  0  0  0
 19 20  1  0  0  0
 20 21  1  0  0  0
 21 22  1  0  0  0
 22 23  2  0  0  0
 23 24  1  0  0  0
 24 25  1  0  0  0
 25 26  2  0  0  0
 26 27  1  0  0  0
 27 28  2  0  0  0
 28 29  1  0  0  0
 29 30  2  0  0  0
 14 15  2  0  0  0
 15 16  1  0  0  0
 16 11  2  0  0  0
 30 22  1  0  0  0
 30 25  1  0  0  0
  6  9  1  0  0  0
  1  4  1  0  0  0
 24 31  1  0  0  0
M  END
> <minimizedAffinity>
-9.69530

$$$$
OCNT-2313388


 25 27  0  0  0  0  0  0  0  0999 V2000
   -3.4743   27.5895    5.9254 C   0  0  0  0  0  0  0  0  0  0  0  0
   -4.7540   28.2700    6.1107 N   0  0  0  0  0  0  0  0  0  0  0  0
   -5.9095   27.9512    5.3883 C   0  0  0  0  0  0  0  0  0  0  0  0
   -6.9105   28.6655    5.4485 O   0  0  0  0  0  0  0  0  0  0  0  0
   -5.9071   26.7597    4.5609 C   0  0  0  0  0  0  0  0  0  0  0  0
   -6.0640   25.4544    4.9721 C   0  0  0  0  0  0  0  0  0  0  0  0
   -5.9575   24.5035    3.8962 C   0  0  0  0  0  0  0  0  0  0  0  0
   -6.0746   23.1007    3.8456 C   0  0  0  0  0  0  0  0  0  0  0  0
   -6.4232   22.2779    5.2983 Cl  0  0  0  0  0  0  0  0  0  0  0  0
   -5.9127   22.4525    2.6363 C   0  0  0  0  0  0  0  0  0  0  0  0
   -5.6419   23.0912    1.4803 N   0  0  0  0  0  0  0  0  0  0  0  0
   -5.5149   24.4395    1.4938 C   0  0  0  0  0  0  0  0  0  0  0  0
   -5.6716   25.1528    2.6883 C   0  0  0  0  0  0  0  0  0  0  0  0
   -5.5409   26.8578    2.8992 S   0  0  0  0  0  0  0  0  0  0  0  0
   -4.7509   29.4152    7.0616 C   0  0  0  0  0  0  0  0  0  0  0  0
   -4.1455   30.7006    6.4439 C   0  0  0  0  0  0  0  0  0  0  0  0
   -4.5724   30.9575    5.1118 O   0  0  0  0  0  0  0  0  0  0  0  0
   -5.5519   30.8789    5.1012 H   0  0  0  0  0  0  0  0  0  0  0  0
   -4.1040   29.0788    8.4260 C   0  0  0  0  0  0  0  0  0  0  0  0
   -2.9967   30.0337    8.8132 C   0  0  0  0  0  0  0  0  0  0  0  0
   -3.2774   31.1860    9.5600 C   0  0  0  0  0  0  0  0  0  0  0  0
   -2.2488   32.0508    9.9365 C   0  0  0  0  0  0  0  0  0  0  0  0
   -0.9329   31.7722    9.5713 C   0  0  0  0  0  0  0  0  0  0  0  0
   -0.6436   30.6302    8.8270 C   0  0  0  0  0  0  0  0  0  0  0  0
   -1.6703   29.7644    8.4487 C   0  0  0  0  0  0  0  0  0  0  0  0
  1  2  1  0  0  0
  2  3  1  0  0  0
  3  4  2  0  0  0
  3  5  1  0  0  0
  5  6  2  0  0  0
  6  7  1  0  0  0
  7  8  2  0  0  0
  8  9  1  0  0  0
  8 10  1  0  0  0
 10 11  2  0  0  0
 11 12  1  0  0  0
 12 13  2  0  0  0
 13 14  1  0  0  0
  2 15  1  0  0  0
 15 16  1  0  0  0
 16 17  1  0  0  0
 15 19  1  0  0  0
 19 20  1  0  0  0
 20 21  2  0  0  0
 21 22  1  0  0  0
 22 23  2  0  0  0
 23 24  1  0  0  0
 24 25  2  0  0  0
 14  5  1  0  0  0
 25 20  1  0  0  0
 13  7  1  0  0  0
 17 18  1  0  0  0
M  END
> <minimizedAffinity>
-8.92918

$$$$
OCNT-2313389


 28 31  0  0  0  0  0  0  0  0999 V2000
   -3.6875   26.0915    3.9584 N   0  0  0  0  0  0  0  0  0  0  0  0
   -4.2089   27.1216    4.8754 C   0  0  0  0  0  0  0  0  0  0  0  0
   -3.2012   27.5807    5.9364 C   0  0  0  0  0  0  0  0  0  0  0  0
   -2.2422   26.4490    6.2886 C   0  0  0  0  0  0  0  0  0  0  0  0
   -1.4791   25.9923    5.0366 C   0  0  0  0  0  0  0  0  0  0  0  0
   -2.2483   26.2722    3.7399 C   0  0  0  0  0  0  0  0  0  0  0  0
   -5.7175   26.8936    2.6850 C   0  0  0  0  0  0  0  0  0  0  0  0
   -4.4543   26.0111    2.6881 C   0  0  0  0  0  0  0  0  0  0  0  0
   -4.8955   24.5829    2.3678 C   0  0  0  0  0  0  0  0  0  0  0  0
   -5.7412   24.3346    1.2751 C   0  0  0  0  0  0  0  0  0  0  0  0
   -6.1586   23.0349    0.9814 C   0  0  0  0  0  0  0  0  0  0  0  0
   -5.7393   21.9693    1.7756 C   0  0  0  0  0  0  0  0  0  0  0  0
   -4.9026   22.2005    2.8654 C   0  0  0  0  0  0  0  0  0  0  0  0
   -4.4844   23.4985    3.1613 C   0  0  0  0  0  0  0  0  0  0  0  0
   -1.2933   26.8821    7.3137 N   0  0  0  0  0  0  0  0  0  0  0  0
   -0.4062   26.3917    7.3052 H   0  0  0  0  0  0  0  0  0  0  0  0
   -1.3170   28.1315    7.8922 C   0  0  0  0  0  0  0  0  0  0  0  0
   -2.4580   28.6544    8.2572 N   0  0  0  0  0  0  0  0  0  0  0  0
   -2.3600   29.8968    8.8076 N   0  0  0  0  0  0  0  0  0  0  0  0
   -1.2160   30.6304    9.0282 C   0  0  0  0  0  0  0  0  0  0  0  0
   -1.5247   31.7755    9.5943 N   0  0  0  0  0  0  0  0  0  0  0  0
   -2.8939   31.8085    9.7469 N   0  0  0  0  0  0  0  0  0  0  0  0
   -3.3853   30.6789    9.2677 C   0  0  0  0  0  0  0  0  0  0  0  0
    0.0056   30.0547    8.6367 C   0  0  0  0  0  0  0  0  0  0  0  0
   -0.0044   28.8384    8.0784 C   0  0  0  0  0  0  0  0  0  0  0  0
   -4.7841   30.2276    9.1865 C   0  0  0  0  0  0  0  0  0  0  0  0
   -5.6501   31.2460    9.4521 F   0  0  0  0  0  0  0  0  0  0  0  0
   -5.0605   29.2572   10.1025 F   0  0  0  0  0  0  0  0  0  0  0  0
  7  8  1  0  0  0
  8  9  1  0  0  0
  9 10  2  0  0  0
 10 11  1  0  0  0
 11 12  2  0  0  0
 12 13  1  0  0  0
 13 14  2  0  0  0
  8  1  1  0  0  0
  1  2  1  0  0  0
  2  3  1  0  0  0
  3  4  1  0  0  0
  4 15  1  0  0  0
 15 17  1  0  0  0
 17 18  2  0  0  0
 18 19  1  0  0  0
 19 20  1  0  0  0
 20 21  2  0  0  0
 21 22  1  0  0  0
 22 23  2  0  0  0
 23 26  1  0  0  0
 26 27  1  0  0  0
 26 28  1  0  0  0
 20 24  1  0  0  0
 24 25  2  0  0  0
  4  5  1  0  0  0
  5  6  1  0  0  0
 14  9  1  0  0  0
  6  1  1  0  0  0
 25 17  1  0  0  0
 23 19  1  0  0  0
 15 16  1  0  0  0
M  END
> <minimizedAffinity>
-10.35597

$$$$
OCNT-2313400


 28 31  0  0  0  0  0  0  0  0999 V2000
   -7.1613   28.5363    6.5236 C   0  0  0  0  0  0  0  0  0  0  0  0
   -6.5045   27.8777    5.3356 C   0  0  0  0  0  0  0  0  0  0  0  0
   -6.2127   26.5056    5.3510 C   0  0  0  0  0  0  0  0  0  0  0  0
   -5.5976   25.8904    4.2549 C   0  0  0  0  0  0  0  0  0  0  0  0
   -5.2679   26.6390    3.1261 C   0  0  0  0  0  0  0  0  0  0  0  0
   -5.5615   28.0042    3.1044 C   0  0  0  0  0  0  0  0  0  0  0  0
   -6.1742   28.6224    4.1971 C   0  0  0  0  0  0  0  0  0  0  0  0
   -4.6675   26.1686    1.9920 O   0  0  0  0  0  0  0  0  0  0  0  0
   -4.4721   24.7589    1.8958 C   0  0  0  0  0  0  0  0  0  0  0  0
   -5.5609   24.1865    1.0241 C   0  0  0  0  0  0  0  0  0  0  0  0
   -5.8689   22.8231    1.0758 C   0  0  0  0  0  0  0  0  0  0  0  0
   -6.8692   22.3342    0.2507 C   0  0  0  0  0  0  0  0  0  0  0  0
   -7.5710   23.0985   -0.6126 N   0  0  0  0  0  0  0  0  0  0  0  0
   -7.2624   24.4121   -0.6452 C   0  0  0  0  0  0  0  0  0  0  0  0
   -6.2799   24.9956    0.1403 C   0  0  0  0  0  0  0  0  0  0  0  0
   -4.4601   29.5663    8.6492 C   0  0  0  0  0  0  0  0  0  0  0  0
   -4.9255   29.3761    7.3654 C   0  0  0  0  0  0  0  0  0  0  0  0
   -6.1900   28.8949    7.5403 N   0  0  0  0  0  0  0  0  0  0  0  0
   -6.4995   28.8006    8.8456 N   0  0  0  0  0  0  0  0  0  0  0  0
   -5.4422   29.2036    9.5359 N   0  0  0  0  0  0  0  0  0  0  0  0
   -0.8818   29.3494    8.4793 O   0  0  0  0  0  0  0  0  0  0  0  0
   -2.0676   30.0085    8.0168 C   0  0  0  0  0  0  0  0  0  0  0  0
   -1.6723   31.4072    7.5460 C   0  0  0  0  0  0  0  0  0  0  0  0
   -1.1519   32.2877    8.6848 C   0  0  0  0  0  0  0  0  0  0  0  0
   -1.8525   32.0391   10.0206 C   0  0  0  0  0  0  0  0  0  0  0  0
   -3.2298   31.4150    9.8356 C   0  0  0  0  0  0  0  0  0  0  0  0
   -3.1299   30.0405    9.1448 C   0  0  0  0  0  0  0  0  0  0  0  0
   -1.1226   28.4232    8.6621 H   0  0  0  0  0  0  0  0  0  0  0  0
 21 22  1  0  0  0
 22 23  1  0  0  0
 23 24  1  0  0  0
 24 25  1  0  0  0
 25 26  1  0  0  0
 26 27  1  0  0  0
 27 16  1  0  0  0
 16 17  2  0  0  0
 17 18  1  0  0  0
 18  1  1  0  0  0
  1  2  1  0  0  0
  2  3  1  0  0  0
  3  4  2  0  0  0
  4  5  1  0  0  0
  5  8  1  0  0  0
  8  9  1  0  0  0
  9 10  1  0  0  0
 10 11  2  0  0  0
 11 12  1  0  0  0
 12 13  2  0  0  0
 13 14  1  0  0  0
 14 15  2  0  0  0
  5  6  2  0  0  0
  6  7  1  0  0  0
 18 19  1  0  0  0
 19 20  2  0  0  0
 27 22  1  0  0  0
 20 16  1  0  0  0
  7  2  2  0  0  0
 15 10  1  0  0  0
 21 28  1  0  0  0
M  END
> <minimizedAffinity>
-9.89049

$$$$
OCNT-2313402


 22 24  0  0  0  0  0  0  0  0999 V2000
   -6.7823   31.1131    7.3845 C   0  0  0  0  0  0  0  0  0  0  0  0
   -7.9509   31.4053    7.1622 O   0  0  0  0  0  0  0  0  0  0  0  0
   -6.1006   30.1328    6.6877 N   0  0  0  0  0  0  0  0  0  0  0  0
   -5.0930   30.1004    6.7855 H   0  0  0  0  0  0  0  0  0  0  0  0
   -6.7147   29.4347    5.5639 C   0  0  0  0  0  0  0  0  0  0  0  0
   -6.7724   27.9210    5.8359 C   0  0  0  0  0  0  0  0  0  0  0  0
   -5.5730   27.1814    5.2481 C   0  0  0  0  0  0  0  0  0  0  0  0
   -5.4921   27.4068    3.7657 C   0  0  0  0  0  0  0  0  0  0  0  0
   -6.0811   28.6746    3.2190 C   0  0  0  0  0  0  0  0  0  0  0  0
   -5.9824   29.7897    4.2549 C   0  0  0  0  0  0  0  0  0  0  0  0
   -5.4588   26.2339    2.8873 N   0  0  0  0  0  0  0  0  0  0  0  0
   -4.3662   26.8001    3.0483 N   0  0  0  0  0  0  0  0  0  0  0  0
   -5.9213   31.7922    8.4332 C   0  0  0  0  0  0  0  0  0  0  0  0
   -4.9179   34.1218    8.2198 C   0  0  0  0  0  0  0  0  0  0  0  0
   -4.7914   32.6432    7.8296 C   0  0  0  0  0  0  0  0  0  0  0  0
   -3.4316   32.0931    8.2429 C   0  0  0  0  0  0  0  0  0  0  0  0
   -2.9220   32.2816    9.5394 C   0  0  0  0  0  0  0  0  0  0  0  0
   -1.6765   31.7606    9.8946 C   0  0  0  0  0  0  0  0  0  0  0  0
   -0.9376   31.0498    8.9578 C   0  0  0  0  0  0  0  0  0  0  0  0
    0.2568   30.5498    9.3009 F   0  0  0  0  0  0  0  0  0  0  0  0
   -1.4198   30.8498    7.6710 C   0  0  0  0  0  0  0  0  0  0  0  0
   -2.6648   31.3701    7.3133 C   0  0  0  0  0  0  0  0  0  0  0  0
 14 15  1  0  0  0
 15 13  1  0  0  0
 13  1  1  0  0  0
  1  2  2  0  0  0
  1  3  1  0  0  0
  3  5  1  0  0  0
  5  6  1  0  0  0
  6  7  1  0  0  0
  7  8  1  0  0  0
  8  9  1  0  0  0
  9 10  1  0  0  0
  8 11  1  0  0  0
 11 12  2  0  0  0
 15 16  1  0  0  0
 16 17  1  0  0  0
 17 18  2  0  0  0
 18 19  1  0  0  0
 19 20  1  0  0  0
 19 21  2  0  0  0
 21 22  1  0  0  0
 10  5  1  0  0  0
 22 16  2  0  0  0
 12  8  1  0  0  0
  3  4  1  0  0  0
M  END
> <minimizedAffinity>
-9.08805

$$$$
OCNT-2313423


 27 29  0  0  0  0  0  0  0  0999 V2000
   -5.2002   28.7846    7.5989 N   0  0  0  0  0  0  0  0  0  0  0  0
   -5.7876   28.2191    8.2095 H   0  0  0  0  0  0  0  0  0  0  0  0
   -1.3653   30.4026    9.2710 N   0  0  0  0  0  0  0  0  0  0  0  0
   -1.8325   31.8019    9.2216 C   0  0  0  0  0  0  0  0  0  0  0  0
   -3.2852   31.7155    8.8712 C   0  0  0  0  0  0  0  0  0  0  0  0
   -4.2482   32.7105    8.9015 C   0  0  0  0  0  0  0  0  0  0  0  0
   -5.5448   32.3857    8.5002 C   0  0  0  0  0  0  0  0  0  0  0  0
   -5.8529   31.0855    8.0678 C   0  0  0  0  0  0  0  0  0  0  0  0
   -4.8661   30.0964    8.0288 C   0  0  0  0  0  0  0  0  0  0  0  0
   -3.5878   30.4211    8.4481 C   0  0  0  0  0  0  0  0  0  0  0  0
   -2.3478   29.5899    8.5116 C   0  0  0  0  0  0  0  0  0  0  0  0
    0.0025   30.1870    8.8034 C   0  0  0  0  0  0  0  0  0  0  0  0
    0.6069   29.2756    6.4682 C   0  0  0  0  0  0  0  0  0  0  0  0
    0.1844   28.9630    7.8949 C   0  0  0  0  0  0  0  0  0  0  0  0
   -5.6112   28.5511    5.9768 S   0  0  0  0  0  0  0  0  0  0  0  0
   -6.7944   27.7173    5.9713 O   0  0  0  0  0  0  0  0  0  0  0  0
   -5.6161   29.8304    5.3007 O   0  0  0  0  0  0  0  0  0  0  0  0
   -4.2540   27.5765    5.3508 C   0  0  0  0  0  0  0  0  0  0  0  0
   -3.1429   27.4006    6.1925 C   0  0  0  0  0  0  0  0  0  0  0  0
   -2.0361   26.6610    5.7670 C   0  0  0  0  0  0  0  0  0  0  0  0
   -2.0253   26.0980    4.4932 C   0  0  0  0  0  0  0  0  0  0  0  0
   -3.1386   26.2857    3.6607 C   0  0  0  0  0  0  0  0  0  0  0  0
   -3.1214   25.7461    2.4298 F   0  0  0  0  0  0  0  0  0  0  0  0
   -4.2697   27.0133    4.0636 C   0  0  0  0  0  0  0  0  0  0  0  0
   -5.4019   27.1815    3.0922 C   0  0  0  0  0  0  0  0  0  0  0  0
   -1.0054   25.3564    3.9609 O   0  0  0  0  0  0  0  0  0  0  0  0
    0.2991   25.9198    3.9991 C   0  0  0  0  0  0  0  0  0  0  0  0
 13 14  1  0  0  0
 14 12  1  0  0  0
 12  3  1  0  0  0
  3  4  1  0  0  0
  4  5  1  0  0  0
  5  6  2  0  0  0
  6  7  1  0  0  0
  7  8  2  0  0  0
  8  9  1  0  0  0
  9  1  1  0  0  0
  1 15  1  0  0  0
 15 16  2  0  0  0
 15 17  2  0  0  0
 15 18  1  0  0  0
 18 19  1  0  0  0
 19 20  2  0  0  0
 20 21  1  0  0  0
 21 26  1  0  0  0
 26 27  1  0  0  0
 21 22  2  0  0  0
 22 23  1  0  0  0
 22 24  1  0  0  0
 24 25  1  0  0  0
  9 10  2  0  0  0
 10 11  1  0  0  0
 11  3  1  0  0  0
 10  5  1  0  0  0
 24 18  2  0  0  0
  1  2  1  0  0  0
M  END
> <minimizedAffinity>
-9.07527

$$$$
OCNT-2313433


 26 29  0  0  0  0  0  0  0  0999 V2000
   -5.1556   31.6259    7.7214 C   0  0  0  0  0  0  0  0  0  0  0  0
   -5.1520   32.3651    9.0781 C   0  0  0  0  0  0  0  0  0  0  0  0
   -3.7591   32.8661    9.4397 C   0  0  0  0  0  0  0  0  0  0  0  0
   -2.7555   31.7104    9.5273 C   0  0  0  0  0  0  0  0  0  0  0  0
   -3.0641   30.6458    8.5513 N   0  0  0  0  0  0  0  0  0  0  0  0
   -3.7490   31.1203    7.3410 C   0  0  0  0  0  0  0  0  0  0  0  0
   -1.9151   29.8922    8.2601 C   0  0  0  0  0  0  0  0  0  0  0  0
   -0.6791   30.3011    8.6281 N   0  0  0  0  0  0  0  0  0  0  0  0
    0.3849   29.5246    8.3283 C   0  0  0  0  0  0  0  0  0  0  0  0
    0.3999   28.3538    7.6806 N   0  0  0  0  0  0  0  0  0  0  0  0
   -0.8281   27.9695    7.2942 C   0  0  0  0  0  0  0  0  0  0  0  0
   -1.9711   28.6981    7.5597 C   0  0  0  0  0  0  0  0  0  0  0  0
   -2.9782   27.9854    6.9708 N   0  0  0  0  0  0  0  0  0  0  0  0
   -2.4232   26.8692    6.4099 C   0  0  0  0  0  0  0  0  0  0  0  0
   -1.1219   26.8289    6.5938 N   0  0  0  0  0  0  0  0  0  0  0  0
   -3.9504   28.2574    6.9414 H   0  0  0  0  0  0  0  0  0  0  0  0
   -6.1624   30.4600    7.7159 C   0  0  0  0  0  0  0  0  0  0  0  0
   -6.8785   30.4077    6.4402 N   0  0  0  0  0  0  0  0  0  0  0  0
   -7.8790   30.5660    6.5299 H   0  0  0  0  0  0  0  0  0  0  0  0
   -5.4757   26.1898    2.5077 Cl  0  0  0  0  0  0  0  0  0  0  0  0
   -5.8965   27.3977    3.6571 C   0  0  0  0  0  0  0  0  0  0  0  0
   -6.1817   27.0381    4.9697 C   0  0  0  0  0  0  0  0  0  0  0  0
   -6.5227   28.0229    5.9051 C   0  0  0  0  0  0  0  0  0  0  0  0
   -6.6118   29.3715    5.5385 C   0  0  0  0  0  0  0  0  0  0  0  0
   -6.2806   29.7106    4.2169 C   0  0  0  0  0  0  0  0  0  0  0  0
   -5.9382   28.7337    3.2762 C   0  0  0  0  0  0  0  0  0  0  0  0
 20 21  1  0  0  0
 21 22  1  0  0  0
 22 23  2  0  0  0
 23 24  1  0  0  0
 24 18  1  0  0  0
 18 17  1  0  0  0
 17  1  1  0  0  0
  1  2  1  0  0  0
  2  3  1  0  0  0
  3  4  1  0  0  0
  4  5  1  0  0  0
  5  7  1  0  0  0
  7  8  1  0  0  0
  8  9  2  0  0  0
  9 10  1  0  0  0
 10 11  2  0  0  0
 11 12  1  0  0  0
 12 13  1  0  0  0
 13 14  1  0  0  0
 14 15  2  0  0  0
  5  6  1  0  0  0
 24 25  2  0  0  0
 25 26  1  0  0  0
 26 21  2  0  0  0
  6  1  1  0  0  0
 12  7  2  0  0  0
 15 11  1  0  0  0
 18 19  1  0  0  0
 13 16  1  0  0  0
M  END
> <minimizedAffinity>
-9.64693

$$$$
OCNT-2313460


 23 25  0  0  0  0  0  0  0  0999 V2000
   -6.6088   29.2907    7.8516 C   0  0  0  0  0  0  0  0  0  0  0  0
   -5.9101   31.1553    9.3409 C   0  0  0  0  0  0  0  0  0  0  0  0
   -5.8073   29.6241    9.1453 C   0  0  0  0  0  0  0  0  0  0  0  0
   -6.4125   28.9246   10.3809 C   0  0  0  0  0  0  0  0  0  0  0  0
   -5.6205   27.8088   10.7785 O   0  0  0  0  0  0  0  0  0  0  0  0
   -6.1335   27.3215   11.4474 H   0  0  0  0  0  0  0  0  0  0  0  0
   -4.3274   29.1921    8.9297 C   0  0  0  0  0  0  0  0  0  0  0  0
   -3.3502   30.3133    8.6804 C   0  0  0  0  0  0  0  0  0  0  0  0
   -2.5951   31.0106    9.6040 C   0  0  0  0  0  0  0  0  0  0  0  0
   -1.7957   32.0239    9.0014 C   0  0  0  0  0  0  0  0  0  0  0  0
   -1.9813   32.0833    7.6392 C   0  0  0  0  0  0  0  0  0  0  0  0
   -3.1177   30.9290    7.0956 S   0  0  0  0  0  0  0  0  0  0  0  0
   -5.9956   28.1921    7.1040 N   0  0  0  0  0  0  0  0  0  0  0  0
   -6.3962   27.2912    7.3493 H   0  0  0  0  0  0  0  0  0  0  0  0
   -5.9902   28.3433    5.7105 C   0  0  0  0  0  0  0  0  0  0  0  0
   -6.1220   29.5700    5.1564 N   0  0  0  0  0  0  0  0  0  0  0  0
   -6.1058   29.6881    3.8194 C   0  0  0  0  0  0  0  0  0  0  0  0
   -5.9715   28.7161    2.9148 N   0  0  0  0  0  0  0  0  0  0  0  0
   -5.8287   27.5110    3.4893 C   0  0  0  0  0  0  0  0  0  0  0  0
   -5.8225   27.2380    4.8485 C   0  0  0  0  0  0  0  0  0  0  0  0
   -5.6308   25.8309    5.0793 C   0  0  0  0  0  0  0  0  0  0  0  0
   -5.5142   25.1108    3.9104 C   0  0  0  0  0  0  0  0  0  0  0  0
   -5.6289   26.1141    2.5312 S   0  0  0  0  0  0  0  0  0  0  0  0
  2  3  1  0  0  0
  3  4  1  0  0  0
  4  5  1  0  0  0
  3  1  1  0  0  0
  1 13  1  0  0  0
 13 15  1  0  0  0
 15 16  1  0  0  0
 16 17  2  0  0  0
 17 18  1  0  0  0
 18 19  2  0  0  0
 19 20  1  0  0  0
 20 21  1  0  0  0
 21 22  2  0  0  0
 22 23  1  0  0  0
  3  7  1  0  0  0
  7  8  1  0  0  0
  8  9  2  0  0  0
  9 10  1  0  0  0
 10 11  2  0  0  0
 11 12  1  0  0  0
 20 15  2  0  0  0
 12  8  1  0  0  0
 23 19  1  0  0  0
  5  6  1  0  0  0
 13 14  1  0  0  0
M  END
> <minimizedAffinity>
-7.96099

$$$$
OCNT-2313465


 27 29  0  0  0  0  0  0  0  0999 V2000
   -3.9907   29.8437    7.3412 C   0  0  0  0  0  0  0  0  0  0  0  0
   -6.3138   28.6925    6.3861 O   0  0  0  0  0  0  0  0  0  0  0  0
   -5.2663   28.3538    5.8384 C   0  0  0  0  0  0  0  0  0  0  0  0
   -4.0625   28.9154    6.2219 N   0  0  0  0  0  0  0  0  0  0  0  0
   -3.2018   28.4505    5.9558 H   0  0  0  0  0  0  0  0  0  0  0  0
   -5.1680   27.3515    4.7869 C   0  0  0  0  0  0  0  0  0  0  0  0
   -5.8259   27.2682    3.5745 C   0  0  0  0  0  0  0  0  0  0  0  0
   -5.4510   26.1191    2.7989 C   0  0  0  0  0  0  0  0  0  0  0  0
   -5.8885   25.6869    1.5237 C   0  0  0  0  0  0  0  0  0  0  0  0
   -5.3748   24.5154    0.9591 C   0  0  0  0  0  0  0  0  0  0  0  0
   -4.4312   23.7631    1.6447 C   0  0  0  0  0  0  0  0  0  0  0  0
   -3.9838   24.1638    2.9056 C   0  0  0  0  0  0  0  0  0  0  0  0
   -4.5042   25.3446    3.4701 C   0  0  0  0  0  0  0  0  0  0  0  0
   -4.1109   26.0237    4.9999 S   0  0  0  0  0  0  0  0  0  0  0  0
   -2.8411   30.8756    7.2144 C   0  0  0  0  0  0  0  0  0  0  0  0
   -2.8649   31.3044    5.8179 O   0  0  0  0  0  0  0  0  0  0  0  0
   -2.3171   30.6728    5.3164 H   0  0  0  0  0  0  0  0  0  0  0  0
   -1.4535   30.2778    7.4953 C   0  0  0  0  0  0  0  0  0  0  0  0
   -0.6027   29.9640    6.4158 C   0  0  0  0  0  0  0  0  0  0  0  0
    0.6675   29.4250    6.6277 C   0  0  0  0  0  0  0  0  0  0  0  0
    1.1179   29.1950    7.9231 C   0  0  0  0  0  0  0  0  0  0  0  0
    0.3016   29.5110    9.0051 C   0  0  0  0  0  0  0  0  0  0  0  0
   -0.9706   30.0517    8.7956 C   0  0  0  0  0  0  0  0  0  0  0  0
   -3.1224   32.0592    8.1822 C   0  0  0  0  0  0  0  0  0  0  0  0
   -4.1168   32.8560    7.7221 F   0  0  0  0  0  0  0  0  0  0  0  0
   -2.0296   32.8444    8.3515 F   0  0  0  0  0  0  0  0  0  0  0  0
   -3.4860   31.6346    9.4174 F   0  0  0  0  0  0  0  0  0  0  0  0
  2  3  2  0  0  0
  3  4  1  0  0  0
  4  1  1  0  0  0
  1 15  1  0  0  0
 15 16  1  0  0  0
 15 18  1  0  0  0
 18 19  2  0  0  0
 19 20  1  0  0  0
 20 21  2  0  0  0
 21 22  1  0  0  0
 22 23  2  0  0  0
 15 24  1  0  0  0
 24 25  1  0  0  0
 24 26  1  0  0  0
 24 27  1  0  0  0
  3  6  1  0  0  0
  6  7  2  0  0  0
  7  8  1  0  0  0
  8  9  2  0  0  0
  9 10  1  0  0  0
 10 11  2  0  0  0
 11 12  1  0  0  0
 12 13  2  0  0  0
 13 14  1  0  0  0
 23 18  1  0  0  0
 14  6  1  0  0  0
 13  8  1  0  0  0
  4  5  1  0  0  0
 16 17  1  0  0  0
M  END
> <minimizedAffinity>
-10.05870

$$$$
OCNT-2313489


 22 23  0  0  0  0  0  0  0  0999 V2000
   -2.2245   29.7746    6.9560 C   0  0  0  0  0  0  0  0  0  0  0  0
   -4.7986   34.5329    9.2201 C   0  0  0  0  0  0  0  0  0  0  0  0
   -4.1065   33.3376    8.6364 C   0  0  0  0  0  0  0  0  0  0  0  0
   -4.4803   32.8407    7.3852 C   0  0  0  0  0  0  0  0  0  0  0  0
   -3.8576   31.7055    6.8600 C   0  0  0  0  0  0  0  0  0  0  0  0
   -2.8577   31.0271    7.5787 C   0  0  0  0  0  0  0  0  0  0  0  0
   -2.4832   31.5397    8.8304 C   0  0  0  0  0  0  0  0  0  0  0  0
   -3.1103   32.6730    9.3577 C   0  0  0  0  0  0  0  0  0  0  0  0
   -0.8516   29.5749    7.4824 N   0  0  0  0  0  0  0  0  0  0  0  0
    0.1502   29.5245    6.4189 C   0  0  0  0  0  0  0  0  0  0  0  0
   -0.7189   28.4144    8.3618 C   0  0  0  0  0  0  0  0  0  0  0  0
   -3.1442   28.5157    6.9704 C   0  0  0  0  0  0  0  0  0  0  0  0
   -3.6047   28.1170    5.6423 N   0  0  0  0  0  0  0  0  0  0  0  0
   -3.2235   26.8969    5.1088 C   0  0  0  0  0  0  0  0  0  0  0  0
   -2.3181   26.2315    5.6189 O   0  0  0  0  0  0  0  0  0  0  0  0
   -4.4560   28.5547    5.3001 H   0  0  0  0  0  0  0  0  0  0  0  0
   -3.9638   26.4854    3.8332 C   0  0  0  0  0  0  0  0  0  0  0  0
   -4.3744   25.0011    3.6378 C   0  0  0  0  0  0  0  0  0  0  0  0
   -5.7316   25.4000    3.0236 C   0  0  0  0  0  0  0  0  0  0  0  0
   -5.6767   26.9211    3.9230 S   0  0  0  0  0  0  0  0  0  0  0  0
   -6.2417   26.7785    5.2476 O   0  0  0  0  0  0  0  0  0  0  0  0
   -5.9667   28.0555    3.0706 O   0  0  0  0  0  0  0  0  0  0  0  0
  2  3  1  0  0  0
  3  4  1  0  0  0
  4  5  2  0  0  0
  5  6  1  0  0  0
  6  1  1  0  0  0
  1 12  1  0  0  0
 12 13  1  0  0  0
 13 14  1  0  0  0
 14 15  2  0  0  0
 14 17  1  0  0  0
 17 18  1  0  0  0
 18 19  1  0  0  0
 19 20  1  0  0  0
 20 21  2  0  0  0
 20 22  2  0  0  0
  1  9  1  0  0  0
  9 10  1  0  0  0
  9 11  1  0  0  0
  6  7  2  0  0  0
  7  8  1  0  0  0
  8  3  2  0  0  0
 20 17  1  0  0  0
 13 16  1  0  0  0
M  END
> <minimizedAffinity>
-7.67093

$$$$
OCNT-2313504


 22 25  0  0  0  0  0  0  0  0999 V2000
   -6.1717   29.5423    4.4762 C   0  0  0  0  0  0  0  0  0  0  0  0
   -5.3671   24.2301    1.3375 C   0  0  0  0  0  0  0  0  0  0  0  0
   -5.4526   25.6073    1.5001 C   0  0  0  0  0  0  0  0  0  0  0  0
   -5.7182   26.1446    2.7667 C   0  0  0  0  0  0  0  0  0  0  0  0
   -5.8121   27.5328    2.9772 C   0  0  0  0  0  0  0  0  0  0  0  0
   -6.0787   28.0512    4.2519 C   0  0  0  0  0  0  0  0  0  0  0  0
   -6.2595   27.1561    5.3096 C   0  0  0  0  0  0  0  0  0  0  0  0
   -6.1639   25.7765    5.0956 C   0  0  0  0  0  0  0  0  0  0  0  0
   -5.8932   25.2482    3.8416 C   0  0  0  0  0  0  0  0  0  0  0  0
   -5.8077   23.9139    3.6883 N   0  0  0  0  0  0  0  0  0  0  0  0
   -5.5502   23.4340    2.4519 C   0  0  0  0  0  0  0  0  0  0  0  0
   -4.9798   30.0462    5.1373 N   0  0  0  0  0  0  0  0  0  0  0  0
   -4.1515   29.4814    5.0046 H   0  0  0  0  0  0  0  0  0  0  0  0
   -5.1107   30.5046    6.4474 C   0  0  0  0  0  0  0  0  0  0  0  0
   -4.0313   31.1100    7.1266 C   0  0  0  0  0  0  0  0  0  0  0  0
   -2.6771   31.4143    6.7471 C   0  0  0  0  0  0  0  0  0  0  0  0
   -1.9644   32.0211    7.7582 C   0  0  0  0  0  0  0  0  0  0  0  0
   -2.9122   32.2346    9.1647 S   0  0  0  0  0  0  0  0  0  0  0  0
   -4.2761   31.5247    8.4267 C   0  0  0  0  0  0  0  0  0  0  0  0
   -5.4328   31.4129    9.0988 N   0  0  0  0  0  0  0  0  0  0  0  0
   -6.3863   30.8410    8.3610 C   0  0  0  0  0  0  0  0  0  0  0  0
   -6.2871   30.3824    7.1031 N   0  0  0  0  0  0  0  0  0  0  0  0
  2  3  2  0  0  0
  3  4  1  0  0  0
  4  5  2  0  0  0
  5  6  1  0  0  0
  6  1  1  0  0  0
  1 12  1  0  0  0
 12 14  1  0  0  0
 14 15  2  0  0  0
 15 16  1  0  0  0
 16 17  2  0  0  0
 17 18  1  0  0  0
 18 19  1  0  0  0
 19 20  2  0  0  0
 20 21  1  0  0  0
 21 22  2  0  0  0
  6  7  2  0  0  0
  7  8  1  0  0  0
  8  9  2  0  0  0
  9 10  1  0  0  0
 10 11  2  0  0  0
 11  2  1  0  0  0
  9  4  1  0  0  0
 22 14  1  0  0  0
 19 15  1  0  0  0
 12 13  1  0  0  0
M  END
> <minimizedAffinity>
-8.78134

$$$$
OCNT-2313520


 30 33  0  0  0  0  0  0  0  0999 V2000
   -5.8295   29.8130    6.4188 C   0  0  0  0  0  0  0  0  0  0  0  0
   -6.5759   29.4799    7.3322 O   0  0  0  0  0  0  0  0  0  0  0  0
   -4.9313   30.8551    6.4304 N   0  0  0  0  0  0  0  0  0  0  0  0
   -4.4484   31.1318    5.5786 H   0  0  0  0  0  0  0  0  0  0  0  0
   -5.8988   26.9323    3.9739 C   0  0  0  0  0  0  0  0  0  0  0  0
   -6.0298   27.6679    2.7965 C   0  0  0  0  0  0  0  0  0  0  0  0
   -6.0851   29.0230    2.7349 N   0  0  0  0  0  0  0  0  0  0  0  0
   -6.0129   29.6856    3.9133 C   0  0  0  0  0  0  0  0  0  0  0  0
   -5.9076   29.0558    5.1457 C   0  0  0  0  0  0  0  0  0  0  0  0
   -5.8352   27.6579    5.1680 C   0  0  0  0  0  0  0  0  0  0  0  0
   -5.7565   22.1865    2.5068 C   0  0  0  0  0  0  0  0  0  0  0  0
   -5.7782   23.3873    3.3062 N   0  0  0  0  0  0  0  0  0  0  0  0
   -5.8618   24.6746    2.8572 C   0  0  0  0  0  0  0  0  0  0  0  0
   -5.8417   25.4815    3.9777 C   0  0  0  0  0  0  0  0  0  0  0  0
   -5.7391   24.5633    5.0508 C   0  0  0  0  0  0  0  0  0  0  0  0
   -5.7089   23.2916    4.6444 N   0  0  0  0  0  0  0  0  0  0  0  0
   -4.6127   31.7254    7.4945 C   0  0  0  0  0  0  0  0  0  0  0  0
   -5.4303   32.7672    7.9306 C   0  0  0  0  0  0  0  0  0  0  0  0
   -5.0242   33.5708    8.9980 C   0  0  0  0  0  0  0  0  0  0  0  0
   -3.8047   33.3364    9.6306 C   0  0  0  0  0  0  0  0  0  0  0  0
   -2.9823   32.2935    9.2010 C   0  0  0  0  0  0  0  0  0  0  0  0
   -3.3743   31.4732    8.1346 C   0  0  0  0  0  0  0  0  0  0  0  0
   -2.5713   30.4071    7.6544 N   0  0  0  0  0  0  0  0  0  0  0  0
   -2.7559   29.1554    8.4087 C   0  0  0  0  0  0  0  0  0  0  0  0
   -1.6953   28.1510    7.9816 C   0  0  0  0  0  0  0  0  0  0  0  0
   -0.3013   28.6558    8.3563 C   0  0  0  0  0  0  0  0  0  0  0  0
    0.6398   28.0818    7.4502 O   0  0  0  0  0  0  0  0  0  0  0  0
   -0.1879   30.1824    8.3392 C   0  0  0  0  0  0  0  0  0  0  0  0
   -1.1794   30.8074    7.3614 C   0  0  0  0  0  0  0  0  0  0  0  0
    1.5328   28.2984    7.7703 H   0  0  0  0  0  0  0  0  0  0  0  0
 11 12  1  0  0  0
 12 13  1  0  0  0
 13 14  2  0  0  0
 14  5  1  0  0  0
  5  6  2  0  0  0
  6  7  1  0  0  0
  7  8  2  0  0  0
  8  9  1  0  0  0
  9  1  1  0  0  0
  1  2  2  0  0  0
  1  3  1  0  0  0
  3 17  1  0  0  0
 17 18  2  0  0  0
 18 19  1  0  0  0
 19 20  2  0  0  0
 20 21  1  0  0  0
 21 22  2  0  0  0
 22 23  1  0  0  0
 23 24  1  0  0  0
 24 25  1  0  0  0
 25 26  1  0  0  0
 26 27  1  0  0  0
 26 28  1  0  0  0
 28 29  1  0  0  0
  9 10  2  0  0  0
 14 15  1  0  0  0
 15 16  2  0  0  0
 16 12  1  0  0  0
 10  5  1  0  0  0
 22 17  1  0  0  0
 29 23  1  0  0  0
  3  4  1  0  0  0
 27 30  1  0  0  0
M  END
> <minimizedAffinity>
-10.14202

$$$$
OCNT-2313522


 24 27  0  0  0  0  0  0  0  0999 V2000
   -7.8890   29.9898    6.0522 O   0  0  0  0  0  0  0  0  0  0  0  0
   -6.7632   29.4990    6.1095 C   0  0  0  0  0  0  0  0  0  0  0  0
   -5.8141   29.8755    7.0587 N   0  0  0  0  0  0  0  0  0  0  0  0
   -6.1337   31.0001    7.9318 C   0  0  0  0  0  0  0  0  0  0  0  0
   -4.8803   31.6232    8.5289 C   0  0  0  0  0  0  0  0  0  0  0  0
   -4.0769   30.6025    9.3548 C   0  0  0  0  0  0  0  0  0  0  0  0
   -4.2857   29.1576    8.8660 C   0  0  0  0  0  0  0  0  0  0  0  0
   -4.6068   29.1027    7.3759 C   0  0  0  0  0  0  0  0  0  0  0  0
   -6.4095   28.4618    5.1128 C   0  0  0  0  0  0  0  0  0  0  0  0
   -6.0731   28.8199    3.8038 C   0  0  0  0  0  0  0  0  0  0  0  0
   -5.7539   27.8434    2.8553 C   0  0  0  0  0  0  0  0  0  0  0  0
   -5.8010   26.5050    3.2649 C   0  0  0  0  0  0  0  0  0  0  0  0
   -5.5447   25.3513    2.5575 N   0  0  0  0  0  0  0  0  0  0  0  0
   -5.7253   24.2546    3.3577 C   0  0  0  0  0  0  0  0  0  0  0  0
   -6.1075   24.6998    4.6024 C   0  0  0  0  0  0  0  0  0  0  0  0
   -6.1572   26.1204    4.5588 C   0  0  0  0  0  0  0  0  0  0  0  0
   -6.4778   27.1159    5.5006 C   0  0  0  0  0  0  0  0  0  0  0  0
   -5.2681   25.3247    1.5858 H   0  0  0  0  0  0  0  0  0  0  0  0
   -2.6249   30.9750    9.3916 C   0  0  0  0  0  0  0  0  0  0  0  0
   -2.0405   32.1341    9.8564 C   0  0  0  0  0  0  0  0  0  0  0  0
   -0.6986   31.9678    9.6539 N   0  0  0  0  0  0  0  0  0  0  0  0
   -0.5175   30.7401    9.0854 C   0  0  0  0  0  0  0  0  0  0  0  0
   -1.6598   30.1163    8.9148 N   0  0  0  0  0  0  0  0  0  0  0  0
    0.0312   32.6295    9.8795 H   0  0  0  0  0  0  0  0  0  0  0  0
  1  2  2  0  0  0
  2  9  1  0  0  0
  9 10  2  0  0  0
 10 11  1  0  0  0
 11 12  2  0  0  0
 12 13  1  0  0  0
 13 14  1  0  0  0
 14 15  2  0  0  0
 15 16  1  0  0  0
 16 17  2  0  0  0
  2  3  1  0  0  0
  3  4  1  0  0  0
  4  5  1  0  0  0
  5  6  1  0  0  0
  6 19  1  0  0  0
 19 20  2  0  0  0
 20 21  1  0  0  0
 21 22  1  0  0  0
 22 23  2  0  0  0
  6  7  1  0  0  0
  7  8  1  0  0  0
 17  9  1  0  0  0
  8  3  1  0  0  0
 16 12  1  0  0  0
 23 19  1  0  0  0
 13 18  1  0  0  0
 21 24  1  0  0  0
M  END
> <minimizedAffinity>
-9.41540

$$$$
OCNT-2313533


 25 28  0  0  0  0  0  0  0  0999 V2000
   -7.2487   29.6857    6.0890 O   0  0  0  0  0  0  0  0  0  0  0  0
   -6.6430   28.8215    6.7191 C   0  0  0  0  0  0  0  0  0  0  0  0
   -6.1111   27.6784    6.1505 N   0  0  0  0  0  0  0  0  0  0  0  0
   -5.8897   26.9090    6.7747 H   0  0  0  0  0  0  0  0  0  0  0  0
   -6.3304   27.3505    4.7752 C   0  0  0  0  0  0  0  0  0  0  0  0
   -5.5053   27.9588    3.6830 C   0  0  0  0  0  0  0  0  0  0  0  0
   -5.3138   26.5038    4.0308 C   0  0  0  0  0  0  0  0  0  0  0  0
   -5.8056   25.3899    3.1283 C   0  0  0  0  0  0  0  0  0  0  0  0
   -5.7679   25.5283    1.7272 C   0  0  0  0  0  0  0  0  0  0  0  0
   -6.2015   24.5078    0.8746 C   0  0  0  0  0  0  0  0  0  0  0  0
   -6.6766   23.3119    1.4033 C   0  0  0  0  0  0  0  0  0  0  0  0
   -6.7162   23.1365    2.7842 C   0  0  0  0  0  0  0  0  0  0  0  0
   -6.2823   24.1615    3.6335 C   0  0  0  0  0  0  0  0  0  0  0  0
   -6.3338   23.8631    5.3397 Cl  0  0  0  0  0  0  0  0  0  0  0  0
   -6.4013   28.9293    8.2138 C   0  0  0  0  0  0  0  0  0  0  0  0
   -5.2420   29.8383    8.5548 C   0  0  0  0  0  0  0  0  0  0  0  0
   -5.4710   31.1812    8.8924 C   0  0  0  0  0  0  0  0  0  0  0  0
   -4.4104   32.0447    9.2022 C   0  0  0  0  0  0  0  0  0  0  0  0
   -3.0988   31.5415    9.1740 C   0  0  0  0  0  0  0  0  0  0  0  0
   -1.8035   32.0521    9.4127 C   0  0  0  0  0  0  0  0  0  0  0  0
   -0.8465   31.1353    9.2457 N   0  0  0  0  0  0  0  0  0  0  0  0
   -1.5315   30.0302    8.8980 N   0  0  0  0  0  0  0  0  0  0  0  0
   -2.8895   30.2090    8.8404 C   0  0  0  0  0  0  0  0  0  0  0  0
   -3.9307   29.3288    8.5284 C   0  0  0  0  0  0  0  0  0  0  0  0
   -1.0122   29.1800    8.7116 H   0  0  0  0  0  0  0  0  0  0  0  0
  1  2  2  0  0  0
  2 15  1  0  0  0
 15 16  1  0  0  0
 16 17  2  0  0  0
 17 18  1  0  0  0
 18 19  2  0  0  0
 19 20  1  0  0  0
 20 21  2  0  0  0
 21 22  1  0  0  0
 22 23  1  0  0  0
 23 24  2  0  0  0
  2  3  1  0  0  0
  3  5  1  0  0  0
  5  6  1  0  0  0
  6  7  1  0  0  0
  7  8  1  0  0  0
  8  9  2  0  0  0
  9 10  1  0  0  0
 10 11  2  0  0  0
 11 12  1  0  0  0
 12 13  2  0  0  0
 13 14  1  0  0  0
 24 16  1  0  0  0
  7  5  1  0  0  0
 13  8  1  0  0  0
 23 19  1  0  0  0
 22 25  1  0  0  0
  3  4  1  0  0  0
M  END
> <minimizedAffinity>
-9.20686

$$$$
OCNT-2313558


 25 27  0  0  0  0  0  0  0  0999 V2000
   -4.6052   30.5704    5.6558 N   0  0  0  0  0  0  0  0  0  0  0  0
   -5.0294   29.2606    5.5978 C   0  0  0  0  0  0  0  0  0  0  0  0
   -4.9504   28.4274    6.4893 O   0  0  0  0  0  0  0  0  0  0  0  0
   -5.6008   28.9859    4.3705 N   0  0  0  0  0  0  0  0  0  0  0  0
   -4.9788   31.1664    4.9343 H   0  0  0  0  0  0  0  0  0  0  0  0
   -5.3261   29.5700    3.5955 H   0  0  0  0  0  0  0  0  0  0  0  0
   -6.0455   31.4882    8.0312 C   0  0  0  0  0  0  0  0  0  0  0  0
   -4.5672   31.6481    7.8476 C   0  0  0  0  0  0  0  0  0  0  0  0
   -3.9214   32.2631    8.8691 N   0  0  0  0  0  0  0  0  0  0  0  0
   -2.5789   32.4595    8.8084 N   0  0  0  0  0  0  0  0  0  0  0  0
   -1.9043   32.0399    7.7233 C   0  0  0  0  0  0  0  0  0  0  0  0
   -2.5176   31.4119    6.6573 C   0  0  0  0  0  0  0  0  0  0  0  0
   -3.8905   31.1960    6.7081 C   0  0  0  0  0  0  0  0  0  0  0  0
   -6.1004   27.6579    4.0583 C   0  0  0  0  0  0  0  0  0  0  0  0
   -5.4359   27.0280    2.8307 C   0  0  0  0  0  0  0  0  0  0  0  0
   -5.5023   25.4927    2.8031 C   0  0  0  0  0  0  0  0  0  0  0  0
   -6.2130   25.0896    3.9894 O   0  0  0  0  0  0  0  0  0  0  0  0
   -6.5526   23.7008    4.0855 C   0  0  0  0  0  0  0  0  0  0  0  0
   -5.9945   22.8004    2.9810 C   0  0  0  0  0  0  0  0  0  0  0  0
   -6.3043   23.4419    1.6567 C   0  0  0  0  0  0  0  0  0  0  0  0
   -6.7786   22.7126    0.5642 C   0  0  0  0  0  0  0  0  0  0  0  0
   -7.0976   23.3755   -0.6176 C   0  0  0  0  0  0  0  0  0  0  0  0
   -6.9465   24.7588   -0.7035 C   0  0  0  0  0  0  0  0  0  0  0  0
   -6.4562   25.4872    0.3847 C   0  0  0  0  0  0  0  0  0  0  0  0
   -6.1092   24.8360    1.5720 C   0  0  0  0  0  0  0  0  0  0  0  0
  7  8  1  0  0  0
  8  9  1  0  0  0
  9 10  2  0  0  0
 10 11  1  0  0  0
 11 12  2  0  0  0
 12 13  1  0  0  0
 13  1  1  0  0  0
  1  2  1  0  0  0
  2  3  2  0  0  0
  2  4  1  0  0  0
  4 14  1  0  0  0
 14 15  1  0  0  0
 15 16  1  0  0  0
 16 17  1  0  0  0
 17 18  1  0  0  0
 18 19  1  0  0  0
 19 20  1  0  0  0
 20 21  2  0  0  0
 21 22  1  0  0  0
 22 23  2  0  0  0
 23 24  1  0  0  0
 24 25  2  0  0  0
 13  8  2  0  0  0
 25 16  1  0  0  0
 25 20  1  0  0  0
  1  5  1  0  0  0
  4  6  1  0  0  0
M  END
> <minimizedAffinity>
-9.43104

$$$$
OCNT-2313581


 25 26  0  0  0  0  0  0  0  0999 V2000
   -2.5605   26.2045    3.7637 N   0  0  0  0  0  0  0  0  0  0  0  0
   -2.1871   26.2458    5.0930 C   0  0  0  0  0  0  0  0  0  0  0  0
   -2.7863   25.6476    5.9819 O   0  0  0  0  0  0  0  0  0  0  0  0
   -1.8416   26.5091    3.1100 H   0  0  0  0  0  0  0  0  0  0  0  0
   -3.5968   25.2982    3.2917 C   0  0  0  0  0  0  0  0  0  0  0  0
   -4.8356   26.0312    2.6828 C   0  0  0  0  0  0  0  0  0  0  0  0
   -7.3331   29.9974    6.2089 C   0  0  0  0  0  0  0  0  0  0  0  0
   -6.6751   28.9784    5.3274 C   0  0  0  0  0  0  0  0  0  0  0  0
   -6.5565   27.6493    5.7447 C   0  0  0  0  0  0  0  0  0  0  0  0
   -5.9734   26.6894    4.9108 C   0  0  0  0  0  0  0  0  0  0  0  0
   -5.4928   27.0368    3.6392 C   0  0  0  0  0  0  0  0  0  0  0  0
   -5.6486   28.3682    3.2166 C   0  0  0  0  0  0  0  0  0  0  0  0
   -6.2321   29.3268    4.0489 C   0  0  0  0  0  0  0  0  0  0  0  0
   -5.8656   25.1554    2.0682 N   0  0  0  0  0  0  0  0  0  0  0  0
   -5.7883   23.7568    2.4801 C   0  0  0  0  0  0  0  0  0  0  0  0
   -5.8668   25.2599    0.6089 C   0  0  0  0  0  0  0  0  0  0  0  0
   -0.9222   27.0768    5.3573 C   0  0  0  0  0  0  0  0  0  0  0  0
   -0.5417   27.0070    6.7824 N   0  0  0  0  0  0  0  0  0  0  0  0
    0.4165   26.6686    6.8824 H   0  0  0  0  0  0  0  0  0  0  0  0
   -0.7576   28.1310    7.5908 C   0  0  0  0  0  0  0  0  0  0  0  0
    0.2577   28.9729    8.0469 C   0  0  0  0  0  0  0  0  0  0  0  0
   -0.0483   30.1198    8.7827 C   0  0  0  0  0  0  0  0  0  0  0  0
   -1.3778   30.4168    9.0232 C   0  0  0  0  0  0  0  0  0  0  0  0
   -2.3993   29.6637    8.5735 N   0  0  0  0  0  0  0  0  0  0  0  0
   -2.0628   28.5608    7.8600 C   0  0  0  0  0  0  0  0  0  0  0  0
  7  8  1  0  0  0
  8  9  1  0  0  0
  9 10  2  0  0  0
 10 11  1  0  0  0
 11  6  1  0  0  0
  6  5  1  0  0  0
  5  1  1  0  0  0
  1  2  1  0  0  0
  2  3  2  0  0  0
  2 17  1  0  0  0
 17 18  1  0  0  0
 18 20  1  0  0  0
 20 21  1  0  0  0
 21 22  2  0  0  0
 22 23  1  0  0  0
 23 24  2  0  0  0
 24 25  1  0  0  0
  6 14  1  0  0  0
 14 15  1  0  0  0
 14 16  1  0  0  0
 11 12  2  0  0  0
 12 13  1  0  0  0
 13  8  2  0  0  0
 25 20  2  0  0  0
  1  4  1  0  0  0
 18 19  1  0  0  0
M  END
> <minimizedAffinity>
-8.36954

$$$$
OCNT-2313630


 26 29  0  0  0  0  0  0  0  0999 V2000
   -2.5355   27.1022    6.0104 O   0  0  0  0  0  0  0  0  0  0  0  0
   -3.4324   27.9336    6.1060 C   0  0  0  0  0  0  0  0  0  0  0  0
   -4.5331   27.8863    5.2734 N   0  0  0  0  0  0  0  0  0  0  0  0
   -5.3482   28.4257    5.5261 H   0  0  0  0  0  0  0  0  0  0  0  0
   -4.7194   26.7861    4.3310 C   0  0  0  0  0  0  0  0  0  0  0  0
   -5.5126   27.2612    3.1107 C   0  0  0  0  0  0  0  0  0  0  0  0
   -5.6912   26.1481    2.0735 C   0  0  0  0  0  0  0  0  0  0  0  0
   -5.6267   24.7412    2.6736 C   0  0  0  0  0  0  0  0  0  0  0  0
   -6.1928   24.7753    4.0257 N   0  0  0  0  0  0  0  0  0  0  0  0
   -5.3973   25.5547    4.9951 C   0  0  0  0  0  0  0  0  0  0  0  0
   -6.9278   23.6738    4.4676 C   0  0  0  0  0  0  0  0  0  0  0  0
   -7.7666   22.9687    3.5825 C   0  0  0  0  0  0  0  0  0  0  0  0
   -8.5368   21.8721    3.9928 C   0  0  0  0  0  0  0  0  0  0  0  0
   -8.4956   21.4569    5.3166 C   0  0  0  0  0  0  0  0  0  0  0  0
   -7.6953   22.1504    6.2103 C   0  0  0  0  0  0  0  0  0  0  0  0
   -7.6594   21.7661    7.4934 F   0  0  0  0  0  0  0  0  0  0  0  0
   -6.9289   23.2429    5.8024 C   0  0  0  0  0  0  0  0  0  0  0  0
   -3.4492   28.9996    7.0809 C   0  0  0  0  0  0  0  0  0  0  0  0
   -4.4785   29.8448    7.4732 C   0  0  0  0  0  0  0  0  0  0  0  0
   -3.9341   30.6747    8.4636 C   0  0  0  0  0  0  0  0  0  0  0  0
   -2.6552   30.4010    8.6991 N   0  0  0  0  0  0  0  0  0  0  0  0
   -2.3631   29.4045    7.8354 N   0  0  0  0  0  0  0  0  0  0  0  0
   -1.0146   28.7896    7.7812 C   0  0  0  0  0  0  0  0  0  0  0  0
   -0.1012   29.4388    6.7086 C   0  0  0  0  0  0  0  0  0  0  0  0
    1.0613   29.2641    7.7081 C   0  0  0  0  0  0  0  0  0  0  0  0
    0.0017   29.3213    8.8287 C   0  0  0  0  0  0  0  0  0  0  0  0
  1  2  2  0  0  0
  2  3  1  0  0  0
  3  5  1  0  0  0
  5  6  1  0  0  0
  6  7  1  0  0  0
  7  8  1  0  0  0
  8  9  1  0  0  0
  9 11  1  0  0  0
 11 12  2  0  0  0
 12 13  1  0  0  0
 13 14  2  0  0  0
 14 15  1  0  0  0
 15 16  1  0  0  0
 15 17  2  0  0  0
  9 10  1  0  0  0
  2 18  1  0  0  0
 18 19  2  0  0  0
 19 20  1  0  0  0
 20 21  2  0  0  0
 21 22  1  0  0  0
 22 23  1  0  0  0
 23 24  1  0  0  0
 24 25  1  0  0  0
 25 26  1  0  0  0
 10  5  1  0  0  0
 22 18  1  0  0  0
 26 23  1  0  0  0
 17 11  1  0  0  0
  3  4  1  0  0  0
M  END
> <minimizedAffinity>
-8.79120

$$$$
OCNT-2313636


 27 30  0  0  0  0  0  0  0  0999 V2000
   -4.3736   25.5347    4.0132 C   0  0  0  0  0  0  0  0  0  0  0  0
   -3.4695   24.8615    3.5134 O   0  0  0  0  0  0  0  0  0  0  0  0
   -4.0780   26.6145    4.8401 N   0  0  0  0  0  0  0  0  0  0  0  0
   -2.6782   26.8576    5.2025 C   0  0  0  0  0  0  0  0  0  0  0  0
   -2.5259   27.3768    6.6443 C   0  0  0  0  0  0  0  0  0  0  0  0
   -3.3814   28.5534    6.9132 N   0  0  0  0  0  0  0  0  0  0  0  0
   -4.3917   28.8860    5.8984 C   0  0  0  0  0  0  0  0  0  0  0  0
   -5.0425   27.6120    5.3190 C   0  0  0  0  0  0  0  0  0  0  0  0
   -6.0173   22.1919    6.1151 C   0  0  0  0  0  0  0  0  0  0  0  0
   -5.9889   22.9529    4.8798 N   0  0  0  0  0  0  0  0  0  0  0  0
   -6.3880   24.3523    4.9398 C   0  0  0  0  0  0  0  0  0  0  0  0
   -5.8514   25.1906    3.7762 C   0  0  0  0  0  0  0  0  0  0  0  0
   -6.0851   24.4724    2.4642 C   0  0  0  0  0  0  0  0  0  0  0  0
   -6.1851   25.1983    1.2658 C   0  0  0  0  0  0  0  0  0  0  0  0
   -6.3844   24.5362    0.0536 C   0  0  0  0  0  0  0  0  0  0  0  0
   -6.4781   23.1465    0.0226 C   0  0  0  0  0  0  0  0  0  0  0  0
   -6.3702   22.4147    1.2052 C   0  0  0  0  0  0  0  0  0  0  0  0
   -6.1739   23.0711    2.4275 C   0  0  0  0  0  0  0  0  0  0  0  0
   -6.0552   22.2568    3.6726 C   0  0  0  0  0  0  0  0  0  0  0  0
   -6.0337   21.0314    3.6003 O   0  0  0  0  0  0  0  0  0  0  0  0
   -2.9885   29.4791    7.8728 C   0  0  0  0  0  0  0  0  0  0  0  0
   -3.8881   30.2104    8.6655 C   0  0  0  0  0  0  0  0  0  0  0  0
   -3.5590   31.1156    9.6272 N   0  0  0  0  0  0  0  0  0  0  0  0
   -2.2405   31.3153    9.8277 C   0  0  0  0  0  0  0  0  0  0  0  0
   -1.2624   30.6525    9.1156 C   0  0  0  0  0  0  0  0  0  0  0  0
    0.0337   30.8821    9.3613 F   0  0  0  0  0  0  0  0  0  0  0  0
   -1.6363   29.7334    8.1402 C   0  0  0  0  0  0  0  0  0  0  0  0
  9 10  1  0  0  0
 10 11  1  0  0  0
 11 12  1  0  0  0
 12  1  1  0  0  0
  1  2  2  0  0  0
  1  3  1  0  0  0
  3  4  1  0  0  0
  4  5  1  0  0  0
  5  6  1  0  0  0
  6 21  1  0  0  0
 21 22  2  0  0  0
 22 23  1  0  0  0
 23 24  2  0  0  0
 24 25  1  0  0  0
 25 26  1  0  0  0
 25 27  2  0  0  0
  6  7  1  0  0  0
  7  8  1  0  0  0
 12 13  1  0  0  0
 13 14  2  0  0  0
 14 15  1  0  0  0
 15 16  2  0  0  0
 16 17  1  0  0  0
 17 18  2  0  0  0
 18 19  1  0  0  0
 19 20  2  0  0  0
 19 10  1  0  0  0
  8  3  1  0  0  0
 18 13  1  0  0  0
 27 21  1  0  0  0
M  END
> <minimizedAffinity>
-10.13872

$$$$
OCNT-2313647


 27 30  0  0  0  0  0  0  0  0999 V2000
   -2.4860   28.2485    7.3680 C   0  0  0  0  0  0  0  0  0  0  0  0
   -2.4270   27.4655    8.3113 O   0  0  0  0  0  0  0  0  0  0  0  0
   -2.5963   27.8114    6.0715 N   0  0  0  0  0  0  0  0  0  0  0  0
   -2.6713   28.4704    5.3099 H   0  0  0  0  0  0  0  0  0  0  0  0
   -2.6031   26.3964    5.7520 C   0  0  0  0  0  0  0  0  0  0  0  0
   -3.6357   26.1069    4.7008 C   0  0  0  0  0  0  0  0  0  0  0  0
   -5.0132   26.0553    4.8519 C   0  0  0  0  0  0  0  0  0  0  0  0
   -5.7950   25.8096    3.7216 C   0  0  0  0  0  0  0  0  0  0  0  0
   -5.1974   25.6297    2.4644 C   0  0  0  0  0  0  0  0  0  0  0  0
   -3.8098   25.6905    2.3192 C   0  0  0  0  0  0  0  0  0  0  0  0
   -3.0407   25.9227    3.4468 C   0  0  0  0  0  0  0  0  0  0  0  0
   -1.5519   26.0536    3.5295 C   0  0  0  0  0  0  0  0  0  0  0  0
   -1.3028   25.8964    5.0421 C   0  0  0  0  0  0  0  0  0  0  0  0
   -0.1192   26.5914    5.4236 O   0  0  0  0  0  0  0  0  0  0  0  0
   -0.1166   26.6303    6.4028 H   0  0  0  0  0  0  0  0  0  0  0  0
   -0.0237   30.1602    8.4519 C   0  0  0  0  0  0  0  0  0  0  0  0
   -1.3998   30.4453    7.9975 C   0  0  0  0  0  0  0  0  0  0  0  0
   -2.4579   29.6827    7.5415 C   0  0  0  0  0  0  0  0  0  0  0  0
   -3.5186   30.6289    7.3686 C   0  0  0  0  0  0  0  0  0  0  0  0
   -3.0918   31.8655    7.6784 N   0  0  0  0  0  0  0  0  0  0  0  0
   -1.7783   31.7454    8.0612 O   0  0  0  0  0  0  0  0  0  0  0  0
   -4.8913   30.4284    6.9120 C   0  0  0  0  0  0  0  0  0  0  0  0
   -5.1568   29.7981    5.6911 C   0  0  0  0  0  0  0  0  0  0  0  0
   -6.4738   29.5932    5.2831 C   0  0  0  0  0  0  0  0  0  0  0  0
   -7.4934   30.0188    6.1174 C   0  0  0  0  0  0  0  0  0  0  0  0
   -7.2845   30.6205    7.3073 N   0  0  0  0  0  0  0  0  0  0  0  0
   -5.9913   30.8121    7.6732 C   0  0  0  0  0  0  0  0  0  0  0  0
 16 17  1  0  0  0
 17 18  2  0  0  0
 18  1  1  0  0  0
  1  2  2  0  0  0
  1  3  1  0  0  0
  3  5  1  0  0  0
  5  6  1  0  0  0
  6  7  2  0  0  0
  7  8  1  0  0  0
  8  9  2  0  0  0
  9 10  1  0  0  0
 10 11  2  0  0  0
 11 12  1  0  0  0
 12 13  1  0  0  0
 13 14  1  0  0  0
 18 19  1  0  0  0
 19 22  1  0  0  0
 22 23  1  0  0  0
 23 24  2  0  0  0
 24 25  1  0  0  0
 25 26  2  0  0  0
 26 27  1  0  0  0
 19 20  2  0  0  0
 20 21  1  0  0  0
 21 17  1  0  0  0
 13  5  1  0  0  0
 27 22  2  0  0  0
 11  6  1  0  0  0
  3  4  1  0  0  0
 14 15  1  0  0  0
M  END
> <minimizedAffinity>
-8.67248

$$$$
OCNT-2313652


 25 27  0  0  0  0  0  0  0  0999 V2000
   -3.3534   28.9840    7.9822 C   0  0  0  0  0  0  0  0  0  0  0  0
   -2.2118   28.3446    7.2243 C   0  0  0  0  0  0  0  0  0  0  0  0
   -2.2719   26.9871    6.8674 C   0  0  0  0  0  0  0  0  0  0  0  0
   -1.2459   26.4059    6.1235 C   0  0  0  0  0  0  0  0  0  0  0  0
   -0.1530   27.1728    5.7324 C   0  0  0  0  0  0  0  0  0  0  0  0
   -0.0873   28.5222    6.0787 C   0  0  0  0  0  0  0  0  0  0  0  0
   -1.1155   29.1114    6.8122 C   0  0  0  0  0  0  0  0  0  0  0  0
   -0.9527   30.4398    7.0955 O   0  0  0  0  0  0  0  0  0  0  0  0
   -2.0773   31.0983    7.6877 C   0  0  0  0  0  0  0  0  0  0  0  0
   -2.8098   30.2295    8.7002 C   0  0  0  0  0  0  0  0  0  0  0  0
   -5.7456   28.9603    7.2196 C   0  0  0  0  0  0  0  0  0  0  0  0
   -6.2163   28.7601    8.3344 O   0  0  0  0  0  0  0  0  0  0  0  0
   -4.4191   29.2360    7.0168 N   0  0  0  0  0  0  0  0  0  0  0  0
   -4.1172   29.5044    6.0819 H   0  0  0  0  0  0  0  0  0  0  0  0
   -6.6372   29.0022    5.9796 C   0  0  0  0  0  0  0  0  0  0  0  0
   -6.0814   29.6577    3.0671 C   0  0  0  0  0  0  0  0  0  0  0  0
   -6.0365   28.2444    3.5933 C   0  0  0  0  0  0  0  0  0  0  0  0
   -5.6892   27.2053    2.7143 C   0  0  0  0  0  0  0  0  0  0  0  0
   -5.6463   25.8805    3.1552 C   0  0  0  0  0  0  0  0  0  0  0  0
   -5.9543   25.5698    4.4792 C   0  0  0  0  0  0  0  0  0  0  0  0
   -6.2999   26.5883    5.3657 C   0  0  0  0  0  0  0  0  0  0  0  0
   -6.3414   27.9328    4.9421 C   0  0  0  0  0  0  0  0  0  0  0  0
   -3.8528   31.0205    9.4734 C   0  0  0  0  0  0  0  0  0  0  0  0
   -4.6881   30.1175   10.1909 O   0  0  0  0  0  0  0  0  0  0  0  0
   -5.5894   30.1203    9.7713 H   0  0  0  0  0  0  0  0  0  0  0  0
 16 17  1  0  0  0
 17 18  2  0  0  0
 18 19  1  0  0  0
 19 20  2  0  0  0
 20 21  1  0  0  0
 21 22  2  0  0  0
 22 15  1  0  0  0
 15 11  1  0  0  0
 11 12  2  0  0  0
 11 13  1  0  0  0
 13  1  1  0  0  0
  1  2  1  0  0  0
  2  3  2  0  0  0
  3  4  1  0  0  0
  4  5  2  0  0  0
  5  6  1  0  0  0
  6  7  2  0  0  0
  7  8  1  0  0  0
  8  9  1  0  0  0
  9 10  1  0  0  0
 10 23  1  0  0  0
 23 24  1  0  0  0
 22 17  1  0  0  0
 10  1  1  0  0  0
  7  2  1  0  0  0
 13 14  1  0  0  0
 24 25  1  0  0  0
M  END
> <minimizedAffinity>
-8.70354

$$$$
OCNT-2313654


 25 27  0  0  0  0  0  0  0  0999 V2000
   -2.4255   27.3444    6.5506 C   0  0  0  0  0  0  0  0  0  0  0  0
   -1.9937   26.2147    6.7682 O   0  0  0  0  0  0  0  0  0  0  0  0
   -3.3225   27.6118    5.5333 N   0  0  0  0  0  0  0  0  0  0  0  0
   -3.4478   28.5834    5.2772 H   0  0  0  0  0  0  0  0  0  0  0  0
   -2.8023   29.1248    8.2625 C   0  0  0  0  0  0  0  0  0  0  0  0
   -1.9918   28.5106    7.3102 C   0  0  0  0  0  0  0  0  0  0  0  0
   -0.7407   29.2253    7.1810 C   0  0  0  0  0  0  0  0  0  0  0  0
    0.3446   28.9571    6.1931 C   0  0  0  0  0  0  0  0  0  0  0  0
   -0.5553   30.2394    8.0239 N   0  0  0  0  0  0  0  0  0  0  0  0
   -1.9009   30.4155    8.9585 S   0  0  0  0  0  0  0  0  0  0  0  0
   -4.9242   29.6286    9.3957 C   0  0  0  0  0  0  0  0  0  0  0  0
   -4.0692   28.7530    8.6190 N   0  0  0  0  0  0  0  0  0  0  0  0
   -4.5833   28.2138    7.9151 H   0  0  0  0  0  0  0  0  0  0  0  0
   -3.8081   26.5519    4.6370 C   0  0  0  0  0  0  0  0  0  0  0  0
   -2.8658   26.2367    3.4545 C   0  0  0  0  0  0  0  0  0  0  0  0
   -4.1341   26.0909    2.5606 C   0  0  0  0  0  0  0  0  0  0  0  0
   -4.8413   27.0193    3.5871 C   0  0  0  0  0  0  0  0  0  0  0  0
   -4.6614   24.6073    2.2954 C   0  0  0  0  0  0  0  0  0  0  0  0
   -4.3364   23.4971    3.1020 C   0  0  0  0  0  0  0  0  0  0  0  0
   -4.8253   22.2159    2.8231 C   0  0  0  0  0  0  0  0  0  0  0  0
   -5.6524   22.0185    1.7265 C   0  0  0  0  0  0  0  0  0  0  0  0
   -6.1180   20.7913    1.4619 F   0  0  0  0  0  0  0  0  0  0  0  0
   -5.9993   23.0746    0.9034 C   0  0  0  0  0  0  0  0  0  0  0  0
   -5.5041   24.3418    1.1954 C   0  0  0  0  0  0  0  0  0  0  0  0
   -5.8440   25.3569    0.3858 F   0  0  0  0  0  0  0  0  0  0  0  0
 11 12  1  0  0  0
 12  5  1  0  0  0
  5  6  2  0  0  0
  6  1  1  0  0  0
  1  2  2  0  0  0
  1  3  1  0  0  0
  3 14  1  0  0  0
 14 15  1  0  0  0
 15 16  1  0  0  0
 16 18  1  0  0  0
 18 19  1  0  0  0
 19 20  2  0  0  0
 20 21  1  0  0  0
 21 22  1  0  0  0
 21 23  2  0  0  0
 23 24  1  0  0  0
 24 25  1  0  0  0
 16 17  1  0  0  0
  6  7  1  0  0  0
  7  8  1  0  0  0
  7  9  2  0  0  0
  9 10  1  0  0  0
 10  5  1  0  0  0
 17 14  1  0  0  0
 24 18  2  0  0  0
 12 13  1  0  0  0
  3  4  1  0  0  0
M  END
> <minimizedAffinity>
-9.24926

$$$$
OCNT-2313664


 27 30  0  0  0  0  0  0  0  0999 V2000
   -5.2798   25.3138    4.1298 S   0  0  0  0  0  0  0  0  0  0  0  0
   -5.7234   24.6623    5.3405 O   0  0  0  0  0  0  0  0  0  0  0  0
   -3.9062   25.2096    3.6882 O   0  0  0  0  0  0  0  0  0  0  0  0
   -5.9992   29.0091    5.6237 C   0  0  0  0  0  0  0  0  0  0  0  0
   -6.2137   29.7592    4.4587 C   0  0  0  0  0  0  0  0  0  0  0  0
   -6.1175   29.1585    3.2014 C   0  0  0  0  0  0  0  0  0  0  0  0
   -5.8267   27.7990    3.1006 C   0  0  0  0  0  0  0  0  0  0  0  0
   -5.6572   27.0418    4.2647 C   0  0  0  0  0  0  0  0  0  0  0  0
   -5.7250   27.6408    5.5274 C   0  0  0  0  0  0  0  0  0  0  0  0
   -6.5324   29.0881    7.9117 O   0  0  0  0  0  0  0  0  0  0  0  0
   -6.1035   29.6985    6.9387 C   0  0  0  0  0  0  0  0  0  0  0  0
   -5.7213   31.0268    6.9626 N   0  0  0  0  0  0  0  0  0  0  0  0
   -5.5526   31.5137    6.0914 H   0  0  0  0  0  0  0  0  0  0  0  0
   -5.7999   31.8117    8.1541 C   0  0  0  0  0  0  0  0  0  0  0  0
   -5.1279   33.1553    8.2311 C   0  0  0  0  0  0  0  0  0  0  0  0
   -4.5859   32.0002    9.0203 C   0  0  0  0  0  0  0  0  0  0  0  0
   -6.2056   24.7899    2.8442 N   0  0  0  0  0  0  0  0  0  0  0  0
   -7.2047   24.8079    3.0473 H   0  0  0  0  0  0  0  0  0  0  0  0
   -5.7532   23.9767    1.6960 C   0  0  0  0  0  0  0  0  0  0  0  0
   -5.1087   24.7608    0.5509 C   0  0  0  0  0  0  0  0  0  0  0  0
   -6.2930   25.3577   -0.1949 C   0  0  0  0  0  0  0  0  0  0  0  0
   -7.3160   24.2288   -0.2164 C   0  0  0  0  0  0  0  0  0  0  0  0
   -7.0122   23.3808    1.0219 C   0  0  0  0  0  0  0  0  0  0  0  0
   -6.6113   21.9464    0.7101 C   0  0  0  0  0  0  0  0  0  0  0  0
   -5.8053   21.5602    1.8717 N   0  0  0  0  0  0  0  0  0  0  0  0
   -4.9588   22.7365    2.1516 C   0  0  0  0  0  0  0  0  0  0  0  0
   -6.4290   21.4083    2.6657 H   0  0  0  0  0  0  0  0  0  0  0  0
 10 11  2  0  0  0
 11 12  1  0  0  0
 12 14  1  0  0  0
 14 15  1  0  0  0
 15 16  1  0  0  0
 11  4  1  0  0  0
  4  5  1  0  0  0
  5  6  2  0  0  0
  6  7  1  0  0  0
  7  8  2  0  0  0
  8  1  1  0  0  0
  1  2  2  0  0  0
  1  3  2  0  0  0
  1 17  1  0  0  0
 19 17  1  0  0  0
 19 20  1  0  0  0
 20 21  1  0  0  0
 21 22  1  0  0  0
 22 23  1  0  0  0
 23 24  1  0  0  0
 24 25  1  0  0  0
 25 26  1  0  0  0
  8  9  1  0  0  0
 16 14  1  0  0  0
  9  4  2  0  0  0
 23 19  1  0  0  0
 26 19  1  0  0  0
 12 13  1  0  0  0
 17 18  1  0  0  0
 25 27  1  0  0  0
M  END
> <minimizedAffinity>
-9.22065

$$$$
OCNT-2313666


 24 26  0  0  0  0  0  0  0  0999 V2000
   -2.3018   26.1008    7.0475 O   0  0  0  0  0  0  0  0  0  0  0  0
   -1.9982   26.6787    6.0075 C   0  0  0  0  0  0  0  0  0  0  0  0
   -0.9233   27.5384    5.9406 N   0  0  0  0  0  0  0  0  0  0  0  0
   -0.8367   28.1358    5.1303 H   0  0  0  0  0  0  0  0  0  0  0  0
   -2.7326   26.5164    4.7814 C   0  0  0  0  0  0  0  0  0  0  0  0
   -2.4371   25.8904    3.5732 C   0  0  0  0  0  0  0  0  0  0  0  0
   -3.4746   25.9856    2.6596 N   0  0  0  0  0  0  0  0  0  0  0  0
   -4.3921   26.6539    3.3041 C   0  0  0  0  0  0  0  0  0  0  0  0
   -5.7543   27.1499    3.0327 C   0  0  0  0  0  0  0  0  0  0  0  0
   -5.9559   28.1556    4.1944 C   0  0  0  0  0  0  0  0  0  0  0  0
   -4.9737   27.7318    5.3036 C   0  0  0  0  0  0  0  0  0  0  0  0
   -3.9863   26.9792    4.5590 N   0  0  0  0  0  0  0  0  0  0  0  0
   -0.2202   27.9487    7.1548 C   0  0  0  0  0  0  0  0  0  0  0  0
   -0.3306   29.4580    7.4336 C   0  0  0  0  0  0  0  0  0  0  0  0
    0.6768   29.7893    8.3031 F   0  0  0  0  0  0  0  0  0  0  0  0
   -0.0963   30.1735    6.3037 F   0  0  0  0  0  0  0  0  0  0  0  0
   -1.6788   29.8967    8.0668 C   0  0  0  0  0  0  0  0  0  0  0  0
   -2.3839   28.7280    8.5427 O   0  0  0  0  0  0  0  0  0  0  0  0
   -1.4465   30.8115    9.2959 C   0  0  0  0  0  0  0  0  0  0  0  0
   -1.5211   32.2925    8.9439 C   0  0  0  0  0  0  0  0  0  0  0  0
   -2.8982   32.6704    8.3971 C   0  0  0  0  0  0  0  0  0  0  0  0
   -3.5927   31.5238    7.6613 C   0  0  0  0  0  0  0  0  0  0  0  0
   -2.5833   30.5785    7.0153 C   0  0  0  0  0  0  0  0  0  0  0  0
   -1.8550   28.3478    9.2701 H   0  0  0  0  0  0  0  0  0  0  0  0
  1  2  2  0  0  0
  2  3  1  0  0  0
  3 13  1  0  0  0
 13 14  1  0  0  0
 14 15  1  0  0  0
 14 16  1  0  0  0
 14 17  1  0  0  0
 17 18  1  0  0  0
 17 19  1  0  0  0
 19 20  1  0  0  0
 20 21  1  0  0  0
 21 22  1  0  0  0
 22 23  1  0  0  0
  2  5  1  0  0  0
  5  6  2  0  0  0
  6  7  1  0  0  0
  7  8  2  0  0  0
  8  9  1  0  0  0
  9 10  1  0  0  0
 10 11  1  0  0  0
 11 12  1  0  0  0
 23 17  1  0  0  0
 12  5  1  0  0  0
 12  8  1  0  0  0
  3  4  1  0  0  0
 18 24  1  0  0  0
M  END
> <minimizedAffinity>
-8.89585

$$$$
OCNT-2313669


 25 27  0  0  0  0  0  0  0  0999 V2000
   -3.0851   26.3960    4.4137 C   0  0  0  0  0  0  0  0  0  0  0  0
   -2.6793   27.5393    6.5590 C   0  0  0  0  0  0  0  0  0  0  0  0
   -1.9941   26.5987    6.9552 O   0  0  0  0  0  0  0  0  0  0  0  0
   -3.2312   27.5483    5.2876 N   0  0  0  0  0  0  0  0  0  0  0  0
   -4.0602   28.1113    5.1436 H   0  0  0  0  0  0  0  0  0  0  0  0
   -0.1924   29.7138    6.7387 C   0  0  0  0  0  0  0  0  0  0  0  0
   -1.2293   30.2960    7.6942 C   0  0  0  0  0  0  0  0  0  0  0  0
   -2.0744   31.4067    7.0437 C   0  0  0  0  0  0  0  0  0  0  0  0
   -3.0125   30.8757    6.0452 N   0  0  0  0  0  0  0  0  0  0  0  0
   -3.8552   29.8560    6.6904 C   0  0  0  0  0  0  0  0  0  0  0  0
   -3.0765   28.7509    7.4480 C   0  0  0  0  0  0  0  0  0  0  0  0
   -2.0576   29.2886    8.2972 O   0  0  0  0  0  0  0  0  0  0  0  0
   -3.5983   31.6336    5.6966 H   0  0  0  0  0  0  0  0  0  0  0  0
   -4.2202   25.3827    4.5789 C   0  0  0  0  0  0  0  0  0  0  0  0
   -4.9178   25.0518    3.2922 C   0  0  0  0  0  0  0  0  0  0  0  0
   -5.3828   25.9598    2.3594 C   0  0  0  0  0  0  0  0  0  0  0  0
   -5.9491   25.2651    1.3259 N   0  0  0  0  0  0  0  0  0  0  0  0
   -5.8742   23.9124    1.5645 C   0  0  0  0  0  0  0  0  0  0  0  0
   -6.3194   22.8281    0.7994 C   0  0  0  0  0  0  0  0  0  0  0  0
   -7.1175   23.0679   -0.7033 Cl  0  0  0  0  0  0  0  0  0  0  0  0
   -6.1007   21.5383    1.2871 C   0  0  0  0  0  0  0  0  0  0  0  0
   -5.4524   21.3419    2.5043 C   0  0  0  0  0  0  0  0  0  0  0  0
   -5.0099   22.4340    3.2615 C   0  0  0  0  0  0  0  0  0  0  0  0
   -5.2245   23.7462    2.7886 C   0  0  0  0  0  0  0  0  0  0  0  0
   -6.3604   25.6711    0.4954 H   0  0  0  0  0  0  0  0  0  0  0  0
  6  7  1  0  0  0
  7  8  1  0  0  0
  8  9  1  0  0  0
  9 10  1  0  0  0
 10 11  1  0  0  0
 11  2  1  0  0  0
  2  3  2  0  0  0
  2  4  1  0  0  0
  4  1  1  0  0  0
  1 14  1  0  0  0
 14 15  1  0  0  0
 15 16  2  0  0  0
 16 17  1  0  0  0
 17 18  1  0  0  0
 18 19  2  0  0  0
 19 20  1  0  0  0
 19 21  1  0  0  0
 21 22  2  0  0  0
 22 23  1  0  0  0
 23 24  2  0  0  0
 11 12  1  0  0  0
 12  7  1  0  0  0
 24 15  1  0  0  0
 24 18  1  0  0  0
  9 13  1  0  0  0
  4  5  1  0  0  0
 17 25  1  0  0  0
M  END
> <minimizedAffinity>
-8.96035

$$$$
OCNT-2313683


 28 30  0  0  0  0  0  0  0  0999 V2000
   -5.4390   28.9862    4.9303 N   0  0  0  0  0  0  0  0  0  0  0  0
   -5.8728   27.7151    4.5665 C   0  0  0  0  0  0  0  0  0  0  0  0
   -6.4151   26.8963    5.3018 O   0  0  0  0  0  0  0  0  0  0  0  0
   -4.9817   29.5379    4.2173 H   0  0  0  0  0  0  0  0  0  0  0  0
   -6.7344   30.8194    9.4147 C   0  0  0  0  0  0  0  0  0  0  0  0
   -6.0207   30.2661    8.2394 C   0  0  0  0  0  0  0  0  0  0  0  0
   -4.7085   30.0271    8.2922 N   0  0  0  0  0  0  0  0  0  0  0  0
   -4.4055   29.5387    7.0736 N   0  0  0  0  0  0  0  0  0  0  0  0
   -5.4949   29.4628    6.2300 C   0  0  0  0  0  0  0  0  0  0  0  0
   -6.5534   29.9463    6.9724 C   0  0  0  0  0  0  0  0  0  0  0  0
   -3.0108   29.2494    6.7884 C   0  0  0  0  0  0  0  0  0  0  0  0
   -2.1535   30.5262    6.7395 C   0  0  0  0  0  0  0  0  0  0  0  0
   -0.7149   30.0562    6.5967 C   0  0  0  0  0  0  0  0  0  0  0  0
   -0.6128   28.5475    7.5508 S   0  0  0  0  0  0  0  0  0  0  0  0
    0.0315   28.8354    8.8141 O   0  0  0  0  0  0  0  0  0  0  0  0
   -0.1570   27.4915    6.6695 O   0  0  0  0  0  0  0  0  0  0  0  0
   -2.3591   28.3317    7.8210 C   0  0  0  0  0  0  0  0  0  0  0  0
   -5.5772   27.3878    3.0900 C   0  0  0  0  0  0  0  0  0  0  0  0
   -4.9970   26.0289    2.9197 N   0  0  0  0  0  0  0  0  0  0  0  0
   -3.5300   26.0223    2.8174 C   0  0  0  0  0  0  0  0  0  0  0  0
   -5.7206   25.1808    2.0711 C   0  0  0  0  0  0  0  0  0  0  0  0
   -5.9469   25.4652    0.7144 C   0  0  0  0  0  0  0  0  0  0  0  0
   -6.7166   24.6165   -0.0882 C   0  0  0  0  0  0  0  0  0  0  0  0
   -7.2672   23.4624    0.4556 C   0  0  0  0  0  0  0  0  0  0  0  0
   -8.0254   22.6738   -0.3199 F   0  0  0  0  0  0  0  0  0  0  0  0
   -7.0408   23.1414    1.7889 C   0  0  0  0  0  0  0  0  0  0  0  0
   -7.7191   21.7207    2.4878 Cl  0  0  0  0  0  0  0  0  0  0  0  0
   -6.2654   23.9881    2.5839 C   0  0  0  0  0  0  0  0  0  0  0  0
  5  6  1  0  0  0
  6  7  2  0  0  0
  7  8  1  0  0  0
  8 11  1  0  0  0
 11 12  1  0  0  0
 12 13  1  0  0  0
 13 14  1  0  0  0
 14 15  2  0  0  0
 14 16  2  0  0  0
 14 17  1  0  0  0
  8  9  1  0  0  0
  9  1  1  0  0  0
  1  2  1  0  0  0
  2  3  2  0  0  0
  2 18  1  0  0  0
 18 19  1  0  0  0
 19 20  1  0  0  0
 19 21  1  0  0  0
 21 22  1  0  0  0
 22 23  2  0  0  0
 23 24  1  0  0  0
 24 25  1  0  0  0
 24 26  2  0  0  0
 26 27  1  0  0  0
 26 28  1  0  0  0
  9 10  2  0  0  0
 10  6  1  0  0  0
 17 11  1  0  0  0
 28 21  2  0  0  0
  1  4  1  0  0  0
M  END
> <minimizedAffinity>
-9.65523

$$$$
OCNT-2313726


 23 25  0  0  0  0  0  0  0  0999 V2000
   -5.9950   28.4974    6.5098 C   0  0  0  0  0  0  0  0  0  0  0  0
   -7.0199   28.5792    7.1795 O   0  0  0  0  0  0  0  0  0  0  0  0
   -4.8201   29.1269    6.8513 N   0  0  0  0  0  0  0  0  0  0  0  0
   -4.0361   29.0080    6.2149 H   0  0  0  0  0  0  0  0  0  0  0  0
   -4.6732   29.8780    8.0772 C   0  0  0  0  0  0  0  0  0  0  0  0
   -3.2446   30.2036    8.4030 C   0  0  0  0  0  0  0  0  0  0  0  0
   -2.1368   29.3684    8.3603 C   0  0  0  0  0  0  0  0  0  0  0  0
   -0.8981   29.8826    8.7500 C   0  0  0  0  0  0  0  0  0  0  0  0
   -0.7822   31.2094    9.1905 C   0  0  0  0  0  0  0  0  0  0  0  0
   -1.9033   32.0391    9.2508 C   0  0  0  0  0  0  0  0  0  0  0  0
   -3.1263   31.5245    8.8513 C   0  0  0  0  0  0  0  0  0  0  0  0
   -4.4553   32.2140    8.8755 C   0  0  0  0  0  0  0  0  0  0  0  0
   -5.3135   31.2959    7.9883 C   0  0  0  0  0  0  0  0  0  0  0  0
   -6.6694   31.2960    8.4349 O   0  0  0  0  0  0  0  0  0  0  0  0
   -7.1078   30.5547    7.9594 H   0  0  0  0  0  0  0  0  0  0  0  0
   -5.7342   25.6568    1.5316 C   0  0  0  0  0  0  0  0  0  0  0  0
   -5.8075   26.3377    2.8665 C   0  0  0  0  0  0  0  0  0  0  0  0
   -5.7402   27.7294    2.9436 C   0  0  0  0  0  0  0  0  0  0  0  0
   -5.7968   28.4376    4.0924 N   0  0  0  0  0  0  0  0  0  0  0  0
   -5.9298   27.7117    5.2354 C   0  0  0  0  0  0  0  0  0  0  0  0
   -6.0056   26.3258    5.2716 C   0  0  0  0  0  0  0  0  0  0  0  0
   -5.9436   25.6174    4.0664 C   0  0  0  0  0  0  0  0  0  0  0  0
   -6.0243   24.1167    4.0819 C   0  0  0  0  0  0  0  0  0  0  0  0
 16 17  1  0  0  0
 17 18  1  0  0  0
 18 19  2  0  0  0
 19 20  1  0  0  0
 20  1  1  0  0  0
  1  2  2  0  0  0
  1  3  1  0  0  0
  3  5  1  0  0  0
  5  6  1  0  0  0
  6  7  2  0  0  0
  7  8  1  0  0  0
  8  9  2  0  0  0
  9 10  1  0  0  0
 10 11  2  0  0  0
 11 12  1  0  0  0
 12 13  1  0  0  0
 13 14  1  0  0  0
 20 21  2  0  0  0
 21 22  1  0  0  0
 22 23  1  0  0  0
 22 17  2  0  0  0
 13  5  1  0  0  0
 11  6  1  0  0  0
  3  4  1  0  0  0
 14 15  1  0  0  0
M  END
> <minimizedAffinity>
-9.13031

$$$$
OCNT-2313749


 28 31  0  0  0  0  0  0  0  0999 V2000
   -2.5886   25.5731    4.6639 O   0  0  0  0  0  0  0  0  0  0  0  0
   -3.7394   25.9860    4.5260 C   0  0  0  0  0  0  0  0  0  0  0  0
   -4.1978   27.0602    5.2608 N   0  0  0  0  0  0  0  0  0  0  0  0
   -5.3767   27.8733    5.0202 C   0  0  0  0  0  0  0  0  0  0  0  0
   -5.0348   29.2262    5.6360 C   0  0  0  0  0  0  0  0  0  0  0  0
   -4.1730   28.8542    6.8560 C   0  0  0  0  0  0  0  0  0  0  0  0
   -5.0596   28.3827    7.8822 O   0  0  0  0  0  0  0  0  0  0  0  0
   -3.3599   27.6634    6.2895 C   0  0  0  0  0  0  0  0  0  0  0  0
   -4.8020   28.7940    8.7252 H   0  0  0  0  0  0  0  0  0  0  0  0
   -4.6037   25.4236    3.5183 C   0  0  0  0  0  0  0  0  0  0  0  0
   -5.4102   24.3013    3.5032 C   0  0  0  0  0  0  0  0  0  0  0  0
   -5.6163   23.1417    4.7358 Cl  0  0  0  0  0  0  0  0  0  0  0  0
   -6.0433   24.2194    2.2270 C   0  0  0  0  0  0  0  0  0  0  0  0
   -6.9721   23.3355    1.6371 C   0  0  0  0  0  0  0  0  0  0  0  0
   -7.3785   23.5579    0.3182 C   0  0  0  0  0  0  0  0  0  0  0  0
   -8.5183   22.4880   -0.4057 Cl  0  0  0  0  0  0  0  0  0  0  0  0
   -6.8772   24.6266   -0.4203 C   0  0  0  0  0  0  0  0  0  0  0  0
   -5.9478   25.5089    0.1390 C   0  0  0  0  0  0  0  0  0  0  0  0
   -5.5537   25.2781    1.4621 C   0  0  0  0  0  0  0  0  0  0  0  0
   -4.6530   25.9555    2.2483 N   0  0  0  0  0  0  0  0  0  0  0  0
   -4.1001   26.7487    1.9496 H   0  0  0  0  0  0  0  0  0  0  0  0
   -3.3335   29.9814    7.4375 C   0  0  0  0  0  0  0  0  0  0  0  0
   -3.2003   30.1461    8.8289 C   0  0  0  0  0  0  0  0  0  0  0  0
   -2.4028   31.1636    9.3589 C   0  0  0  0  0  0  0  0  0  0  0  0
   -1.7192   32.0160    8.5038 C   0  0  0  0  0  0  0  0  0  0  0  0
   -0.9532   32.9893    9.0127 F   0  0  0  0  0  0  0  0  0  0  0  0
   -1.8110   31.8646    7.1276 C   0  0  0  0  0  0  0  0  0  0  0  0
   -2.6078   30.8474    6.5962 C   0  0  0  0  0  0  0  0  0  0  0  0
  1  2  2  0  0  0
  2 10  1  0  0  0
 10 11  2  0  0  0
 11 12  1  0  0  0
 11 13  1  0  0  0
 13 14  2  0  0  0
 14 15  1  0  0  0
 15 16  1  0  0  0
 15 17  2  0  0  0
 17 18  1  0  0  0
 18 19  2  0  0  0
 19 20  1  0  0  0
  2  3  1  0  0  0
  3  4  1  0  0  0
  4  5  1  0  0  0
  5  6  1  0  0  0
  6  7  1  0  0  0
  6 22  1  0  0  0
 22 23  1  0  0  0
 23 24  2  0  0  0
 24 25  1  0  0  0
 25 26  1  0  0  0
 25 27  2  0  0  0
 27 28  1  0  0  0
  6  8  1  0  0  0
 20 10  1  0  0  0
  8  3  1  0  0  0
 19 13  1  0  0  0
 28 22  2  0  0  0
 20 21  1  0  0  0
  7  9  1  0  0  0
M  END
> <minimizedAffinity>
-9.96433

$$$$
OCNT-2313756


 24 27  0  0  0  0  0  0  0  0999 V2000
   -1.6749   28.1216    7.8777 O   0  0  0  0  0  0  0  0  0  0  0  0
   -2.6092   28.4430    7.1387 C   0  0  0  0  0  0  0  0  0  0  0  0
   -2.9777   27.6182    6.0633 N   0  0  0  0  0  0  0  0  0  0  0  0
   -4.3754   27.4584    5.6508 C   0  0  0  0  0  0  0  0  0  0  0  0
   -4.4937   26.8913    4.2249 C   0  0  0  0  0  0  0  0  0  0  0  0
   -3.7425   25.6252    4.0549 N   0  0  0  0  0  0  0  0  0  0  0  0
   -2.3264   25.8567    4.4190 C   0  0  0  0  0  0  0  0  0  0  0  0
   -2.1645   26.4242    5.8423 C   0  0  0  0  0  0  0  0  0  0  0  0
   -3.3287   29.6868    7.3482 C   0  0  0  0  0  0  0  0  0  0  0  0
   -4.2785   30.0338    8.2766 C   0  0  0  0  0  0  0  0  0  0  0  0
   -5.0341   29.4286    9.3891 C   0  0  0  0  0  0  0  0  0  0  0  0
   -6.1347   30.5101    9.6516 C   0  0  0  0  0  0  0  0  0  0  0  0
   -5.6145   31.8578    9.0484 C   0  0  0  0  0  0  0  0  0  0  0  0
   -4.5980   31.3881    8.0901 C   0  0  0  0  0  0  0  0  0  0  0  0
   -3.8245   31.8449    7.0651 C   0  0  0  0  0  0  0  0  0  0  0  0
   -3.0351   30.8212    6.6096 O   0  0  0  0  0  0  0  0  0  0  0  0
   -3.8860   25.1415    2.6680 C   0  0  0  0  0  0  0  0  0  0  0  0
   -5.1450   25.6769    1.9645 C   0  0  0  0  0  0  0  0  0  0  0  0
   -5.7883   24.6224    1.0969 C   0  0  0  0  0  0  0  0  0  0  0  0
   -5.5617   23.2648    1.3365 C   0  0  0  0  0  0  0  0  0  0  0  0
   -6.1902   22.3329    0.5248 C   0  0  0  0  0  0  0  0  0  0  0  0
   -7.0191   22.6569   -0.4902 N   0  0  0  0  0  0  0  0  0  0  0  0
   -7.2269   23.9735   -0.7033 C   0  0  0  0  0  0  0  0  0  0  0  0
   -6.6454   24.9799    0.0529 C   0  0  0  0  0  0  0  0  0  0  0  0
  1  2  2  0  0  0
  2  9  1  0  0  0
  9 10  2  0  0  0
 10 11  1  0  0  0
 11 12  1  0  0  0
 12 13  1  0  0  0
 13 14  1  0  0  0
 14 15  2  0  0  0
 15 16  1  0  0  0
  2  3  1  0  0  0
  3  4  1  0  0  0
  4  5  1  0  0  0
  5  6  1  0  0  0
  6 17  1  0  0  0
 17 18  1  0  0  0
 18 19  1  0  0  0
 19 20  2  0  0  0
 20 21  1  0  0  0
 21 22  2  0  0  0
 22 23  1  0  0  0
 23 24  2  0  0  0
  6  7  1  0  0  0
  7  8  1  0  0  0
 16  9  1  0  0  0
  8  3  1  0  0  0
 14 10  1  0  0  0
 24 19  1  0  0  0
M  END
> <minimizedAffinity>
-8.83211

$$$$
OCNT-2313761


 27 30  0  0  0  0  0  0  0  0999 V2000
   -5.8767   30.0949    5.7172 C   0  0  0  0  0  0  0  0  0  0  0  0
   -6.0229   26.2519    3.6392 C   0  0  0  0  0  0  0  0  0  0  0  0
   -6.1666   26.3499    5.0317 C   0  0  0  0  0  0  0  0  0  0  0  0
   -6.1209   27.5806    5.7011 C   0  0  0  0  0  0  0  0  0  0  0  0
   -5.9362   28.7705    4.9932 C   0  0  0  0  0  0  0  0  0  0  0  0
   -5.7864   28.6979    3.6070 C   0  0  0  0  0  0  0  0  0  0  0  0
   -5.8332   27.4603    2.9494 C   0  0  0  0  0  0  0  0  0  0  0  0
   -5.7595   21.1364    1.7369 C   0  0  0  0  0  0  0  0  0  0  0  0
   -6.3461   22.4486    1.4807 N   0  0  0  0  0  0  0  0  0  0  0  0
   -5.2866   23.4525    1.2391 C   0  0  0  0  0  0  0  0  0  0  0  0
   -5.7047   24.9068    1.5584 C   0  0  0  0  0  0  0  0  0  0  0  0
   -6.0728   25.0363    2.9780 N   0  0  0  0  0  0  0  0  0  0  0  0
   -6.6353   23.8354    3.6187 C   0  0  0  0  0  0  0  0  0  0  0  0
   -7.2468   22.8719    2.5731 C   0  0  0  0  0  0  0  0  0  0  0  0
   -4.6789   30.8008    5.3150 N   0  0  0  0  0  0  0  0  0  0  0  0
   -4.8316   31.5761    4.6810 H   0  0  0  0  0  0  0  0  0  0  0  0
   -3.9111   31.2714    6.3647 C   0  0  0  0  0  0  0  0  0  0  0  0
   -4.3110   32.3293    7.0798 N   0  0  0  0  0  0  0  0  0  0  0  0
   -3.5223   32.7166    8.0965 C   0  0  0  0  0  0  0  0  0  0  0  0
   -2.3425   32.0950    8.4243 C   0  0  0  0  0  0  0  0  0  0  0  0
   -2.0021   31.0215    7.6294 C   0  0  0  0  0  0  0  0  0  0  0  0
   -2.7751   30.6068    6.5980 N   0  0  0  0  0  0  0  0  0  0  0  0
   -0.8014   30.2972    7.8680 N   0  0  0  0  0  0  0  0  0  0  0  0
   -0.1074   29.5596    6.9317 C   0  0  0  0  0  0  0  0  0  0  0  0
    0.9812   29.0400    7.5883 C   0  0  0  0  0  0  0  0  0  0  0  0
    0.9867   29.4298    8.8988 N   0  0  0  0  0  0  0  0  0  0  0  0
   -0.0880   30.1761    9.0387 C   0  0  0  0  0  0  0  0  0  0  0  0
  8  9  1  0  0  0
  9 10  1  0  0  0
 10 11  1  0  0  0
 11 12  1  0  0  0
 12  2  1  0  0  0
  2  3  1  0  0  0
  3  4  2  0  0  0
  4  5  1  0  0  0
  5  1  1  0  0  0
  1 15  1  0  0  0
 15 17  1  0  0  0
 17 18  2  0  0  0
 18 19  1  0  0  0
 19 20  2  0  0  0
 20 21  1  0  0  0
 21 23  1  0  0  0
 23 24  1  0  0  0
 24 25  2  0  0  0
 25 26  1  0  0  0
 26 27  2  0  0  0
 21 22  2  0  0  0
  5  6  2  0  0  0
  6  7  1  0  0  0
 12 13  1  0  0  0
 13 14  1  0  0  0
 14  9  1  0  0  0
  7  2  2  0  0  0
 22 17  1  0  0  0
 27 23  1  0  0  0
 15 16  1  0  0  0
M  END
> <minimizedAffinity>
-9.48685

$$$$
OCNT-2313767


 29 31  0  0  0  0  0  0  0  0999 V2000
   -4.2635   29.5241    5.9607 C   0  0  0  0  0  0  0  0  0  0  0  0
   -4.6724   30.4677    5.2890 O   0  0  0  0  0  0  0  0  0  0  0  0
   -3.1316   29.5893    6.7389 N   0  0  0  0  0  0  0  0  0  0  0  0
   -2.8214   28.7666    7.2398 H   0  0  0  0  0  0  0  0  0  0  0  0
   -2.2986   30.7708    6.7799 C   0  0  0  0  0  0  0  0  0  0  0  0
   -0.8078   30.4109    6.5530 C   0  0  0  0  0  0  0  0  0  0  0  0
   -0.1639   29.7266    7.7800 C   0  0  0  0  0  0  0  0  0  0  0  0
   -0.2221   30.6106    9.0418 C   0  0  0  0  0  0  0  0  0  0  0  0
   -1.5485   31.2657    9.1706 C   0  0  0  0  0  0  0  0  0  0  0  0
   -2.4616   31.3504    8.1392 C   0  0  0  0  0  0  0  0  0  0  0  0
   -3.5319   32.0528    8.6229 N   0  0  0  0  0  0  0  0  0  0  0  0
   -3.3697   32.4016    9.9214 N   0  0  0  0  0  0  0  0  0  0  0  0
   -2.1599   31.9339   10.2424 C   0  0  0  0  0  0  0  0  0  0  0  0
   -4.7617   32.4213    7.9236 C   0  0  0  0  0  0  0  0  0  0  0  0
   -5.0248   33.9227    8.0294 C   0  0  0  0  0  0  0  0  0  0  0  0
   -5.9583   31.6100    8.4259 C   0  0  0  0  0  0  0  0  0  0  0  0
   -4.9770   28.1857    6.0116 C   0  0  0  0  0  0  0  0  0  0  0  0
   -2.4869   26.1321    6.3036 C   0  0  0  0  0  0  0  0  0  0  0  0
   -3.3697   26.3402    5.1265 C   0  0  0  0  0  0  0  0  0  0  0  0
   -3.1723   25.6235    4.0179 N   0  0  0  0  0  0  0  0  0  0  0  0
   -4.1486   26.0116    3.1847 N   0  0  0  0  0  0  0  0  0  0  0  0
   -4.9086   27.0433    3.6834 C   0  0  0  0  0  0  0  0  0  0  0  0
   -5.9978   27.7088    2.9190 C   0  0  0  0  0  0  0  0  0  0  0  0
   -4.4556   27.2458    4.9785 C   0  0  0  0  0  0  0  0  0  0  0  0
   -4.2461   25.3570    1.8986 C   0  0  0  0  0  0  0  0  0  0  0  0
   -5.3376   24.3221    1.8835 C   0  0  0  0  0  0  0  0  0  0  0  0
   -4.8818   23.1830    1.2952 F   0  0  0  0  0  0  0  0  0  0  0  0
   -5.7769   23.9835    3.1134 F   0  0  0  0  0  0  0  0  0  0  0  0
   -6.4073   24.7279    1.1572 F   0  0  0  0  0  0  0  0  0  0  0  0
 18 19  1  0  0  0
 19 20  2  0  0  0
 20 21  1  0  0  0
 21 25  1  0  0  0
 25 26  1  0  0  0
 26 27  1  0  0  0
 26 28  1  0  0  0
 26 29  1  0  0  0
 21 22  1  0  0  0
 22 23  1  0  0  0
 22 24  2  0  0  0
 24 17  1  0  0  0
 17  1  1  0  0  0
  1  2  2  0  0  0
  1  3  1  0  0  0
  3  5  1  0  0  0
  5  6  1  0  0  0
  6  7  1  0  0  0
  7  8  1  0  0  0
  8  9  1  0  0  0
  9 10  2  0  0  0
 10 11  1  0  0  0
 11 14  1  0  0  0
 14 15  1  0  0  0
 14 16  1  0  0  0
 11 12  1  0  0  0
 12 13  2  0  0  0
 24 19  1  0  0  0
 10  5  1  0  0  0
 13  9  1  0  0  0
  3  4  1  0  0  0
M  END
> <minimizedAffinity>
-9.19593

$$$$
OCNT-2313769


 30 33  0  0  0  0  0  0  0  0999 V2000
   -4.6093   30.8811    6.5478 N   0  0  0  0  0  0  0  0  0  0  0  0
   -4.8792   31.1221    5.5921 H   0  0  0  0  0  0  0  0  0  0  0  0
   -5.7807   30.3210    7.2817 C   0  0  0  0  0  0  0  0  0  0  0  0
   -6.2818   31.3687    8.3138 C   0  0  0  0  0  0  0  0  0  0  0  0
   -6.6538   30.7222    9.6435 C   0  0  0  0  0  0  0  0  0  0  0  0
   -5.5383   30.0838   10.2676 O   0  0  0  0  0  0  0  0  0  0  0  0
   -4.5946   29.5025    9.3643 C   0  0  0  0  0  0  0  0  0  0  0  0
   -5.2372   29.0817    8.0479 C   0  0  0  0  0  0  0  0  0  0  0  0
   -6.8845   29.8976    6.2511 C   0  0  0  0  0  0  0  0  0  0  0  0
   -6.5021   28.9475    5.1349 C   0  0  0  0  0  0  0  0  0  0  0  0
   -6.3687   27.5713    5.3844 C   0  0  0  0  0  0  0  0  0  0  0  0
   -6.0039   26.6965    4.3598 C   0  0  0  0  0  0  0  0  0  0  0  0
   -5.7614   27.1958    3.0867 C   0  0  0  0  0  0  0  0  0  0  0  0
   -5.4075   26.3571    2.1046 F   0  0  0  0  0  0  0  0  0  0  0  0
   -5.8721   28.5545    2.8195 C   0  0  0  0  0  0  0  0  0  0  0  0
   -6.2365   29.4310    3.8431 C   0  0  0  0  0  0  0  0  0  0  0  0
   -3.9593   32.0525    7.1385 C   0  0  0  0  0  0  0  0  0  0  0  0
   -0.8139   30.4167    7.8308 C   0  0  0  0  0  0  0  0  0  0  0  0
   -0.8181   31.2539    8.9411 C   0  0  0  0  0  0  0  0  0  0  0  0
   -1.9964   32.0327    8.8914 C   0  0  0  0  0  0  0  0  0  0  0  0
   -2.6655   31.6422    7.7534 C   0  0  0  0  0  0  0  0  0  0  0  0
   -1.9617   30.6729    7.1057 O   0  0  0  0  0  0  0  0  0  0  0  0
    0.7762   29.6033    5.9688 O   0  0  0  0  0  0  0  0  0  0  0  0
    0.3803   29.1901    7.2999 S   0  0  0  0  0  0  0  0  0  0  0  0
    1.3395   29.1061    8.3810 O   0  0  0  0  0  0  0  0  0  0  0  0
   -0.4102   27.6953    7.1734 N   0  0  0  0  0  0  0  0  0  0  0  0
   -1.7724   27.6093    7.7530 C   0  0  0  0  0  0  0  0  0  0  0  0
   -2.4484   26.5124    6.9445 C   0  0  0  0  0  0  0  0  0  0  0  0
   -1.9016   26.7576    5.5530 C   0  0  0  0  0  0  0  0  0  0  0  0
   -0.4406   27.1053    5.8087 C   0  0  0  0  0  0  0  0  0  0  0  0
 23 24  2  0  0  0
 24 25  2  0  0  0
 24 18  1  0  0  0
 18 19  2  0  0  0
 19 20  1  0  0  0
 20 21  2  0  0  0
 21 17  1  0  0  0
 17  1  1  0  0  0
  1  3  1  0  0  0
  3  9  1  0  0  0
  9 10  1  0  0  0
 10 11  1  0  0  0
 11 12  2  0  0  0
 12 13  1  0  0  0
 13 14  1  0  0  0
 13 15  2  0  0  0
 15 16  1  0  0  0
  3  4  1  0  0  0
  4  5  1  0  0  0
  5  6  1  0  0  0
  6  7  1  0  0  0
  7  8  1  0  0  0
 21 22  1  0  0  0
 24 26  1  0  0  0
 26 27  1  0  0  0
 27 28  1  0  0  0
 28 29  1  0  0  0
 29 30  1  0  0  0
 22 18  1  0  0  0
 30 26  1  0  0  0
  8  3  1  0  0  0
 16 10  2  0  0  0
  1  2  1  0  0  0
M  END
> <minimizedAffinity>
-10.23323

$$$$
OCNT-2313778


 25 29  0  0  0  0  0  0  0  0999 V2000
   -5.6942   26.3753    2.1686 O   0  0  0  0  0  0  0  0  0  0  0  0
   -5.2860   25.5975    3.0271 C   0  0  0  0  0  0  0  0  0  0  0  0
   -5.8609   24.3600    3.2821 N   0  0  0  0  0  0  0  0  0  0  0  0
   -5.8458   23.7032    4.5847 C   0  0  0  0  0  0  0  0  0  0  0  0
   -7.2417   23.0906    4.7232 C   0  0  0  0  0  0  0  0  0  0  0  0
   -7.5630   22.7101    3.2802 C   0  0  0  0  0  0  0  0  0  0  0  0
   -6.9749   23.8750    2.4703 C   0  0  0  0  0  0  0  0  0  0  0  0
   -4.1151   26.0131    3.8400 C   0  0  0  0  0  0  0  0  0  0  0  0
   -2.8444   25.5664    3.4649 C   0  0  0  0  0  0  0  0  0  0  0  0
   -1.7251   25.9222    4.2211 C   0  0  0  0  0  0  0  0  0  0  0  0
   -1.8669   26.7155    5.3700 C   0  0  0  0  0  0  0  0  0  0  0  0
   -3.1501   27.1449    5.7478 C   0  0  0  0  0  0  0  0  0  0  0  0
   -4.2701   26.7867    4.9940 C   0  0  0  0  0  0  0  0  0  0  0  0
   -0.6577   27.1024    6.1873 C   0  0  0  0  0  0  0  0  0  0  0  0
   -0.8985   28.2929    6.9813 N   0  0  0  0  0  0  0  0  0  0  0  0
   -1.2838   28.3606    8.2846 C   0  0  0  0  0  0  0  0  0  0  0  0
   -1.3459   29.6178    8.6586 N   0  0  0  0  0  0  0  0  0  0  0  0
   -0.9857   30.2927    7.5271 C   0  0  0  0  0  0  0  0  0  0  0  0
   -0.6945   29.5256    6.4728 N   0  0  0  0  0  0  0  0  0  0  0  0
   -7.2965   22.0077    5.7602 C   0  0  0  0  0  0  0  0  0  0  0  0
   -7.8104   22.2259    7.1615 C   0  0  0  0  0  0  0  0  0  0  0  0
   -6.3447   21.9722    6.9292 C   0  0  0  0  0  0  0  0  0  0  0  0
   -6.4911   23.4015    1.1280 C   0  0  0  0  0  0  0  0  0  0  0  0
   -6.8381   24.1535   -0.1326 C   0  0  0  0  0  0  0  0  0  0  0  0
   -7.4666   22.8160    0.1357 C   0  0  0  0  0  0  0  0  0  0  0  0
  1  2  2  0  0  0
  2  8  1  0  0  0
  8  9  1  0  0  0
  9 10  2  0  0  0
 10 11  1  0  0  0
 11 14  1  0  0  0
 14 15  1  0  0  0
 15 16  1  0  0  0
 16 17  2  0  0  0
 17 18  1  0  0  0
 18 19  2  0  0  0
 11 12  2  0  0  0
 12 13  1  0  0  0
  2  3  1  0  0  0
  3  4  1  0  0  0
  4  5  1  0  0  0
  5 20  1  0  0  0
 20 21  1  0  0  0
 21 22  1  0  0  0
  5  6  1  0  0  0
  6  7  1  0  0  0
  7 23  1  0  0  0
 23 24  1  0  0  0
 24 25  1  0  0  0
 13  8  2  0  0  0
  7  3  1  0  0  0
 25 23  1  0  0  0
 19 15  1  0  0  0
 22 20  1  0  0  0
M  END
> <minimizedAffinity>
-8.97475

$$$$
OCNT-2313789


 25 28  0  0  0  0  0  0  0  0999 V2000
   -6.3043   25.2694    5.0218 O   0  0  0  0  0  0  0  0  0  0  0  0
   -6.1652   25.0002    3.8319 C   0  0  0  0  0  0  0  0  0  0  0  0
   -6.6959   23.7893    3.2277 C   0  0  0  0  0  0  0  0  0  0  0  0
   -6.5321   23.6304    1.8671 C   0  0  0  0  0  0  0  0  0  0  0  0
   -5.9134   24.4873    1.0172 N   0  0  0  0  0  0  0  0  0  0  0  0
   -5.4248   25.5404    1.5869 C   0  0  0  0  0  0  0  0  0  0  0  0
   -5.4868   25.8336    2.9377 N   0  0  0  0  0  0  0  0  0  0  0  0
   -7.2191   22.1754    1.3040 S   0  0  0  0  0  0  0  0  0  0  0  0
   -7.7388   21.7427    2.8740 C   0  0  0  0  0  0  0  0  0  0  0  0
   -7.4010   22.6897    3.8233 C   0  0  0  0  0  0  0  0  0  0  0  0
   -7.7481   22.4833    5.2220 C   0  0  0  0  0  0  0  0  0  0  0  0
   -6.7672   22.0934    6.1439 C   0  0  0  0  0  0  0  0  0  0  0  0
   -7.1008   21.9033    7.4876 C   0  0  0  0  0  0  0  0  0  0  0  0
   -8.4140   22.1033    7.9100 C   0  0  0  0  0  0  0  0  0  0  0  0
   -8.8238   21.8690    9.5645 Cl  0  0  0  0  0  0  0  0  0  0  0  0
   -9.3967   22.4920    7.0017 C   0  0  0  0  0  0  0  0  0  0  0  0
   -9.0639   22.6830    5.6579 C   0  0  0  0  0  0  0  0  0  0  0  0
   -4.9257   27.0816    3.4320 C   0  0  0  0  0  0  0  0  0  0  0  0
   -5.9580   28.1839    3.7066 C   0  0  0  0  0  0  0  0  0  0  0  0
   -5.7963   28.8975    5.0530 C   0  0  0  0  0  0  0  0  0  0  0  0
   -7.0564   28.7874    5.9136 C   0  0  0  0  0  0  0  0  0  0  0  0
   -6.5583   28.7667    7.3529 C   0  0  0  0  0  0  0  0  0  0  0  0
   -5.0948   28.8338    7.2901 N   0  0  0  0  0  0  0  0  0  0  0  0
   -4.7325   28.3093    5.9703 C   0  0  0  0  0  0  0  0  0  0  0  0
   -4.8124   29.8134    7.3427 H   0  0  0  0  0  0  0  0  0  0  0  0
  1  2  2  0  0  0
  2  3  1  0  0  0
  3  4  2  0  0  0
  4  5  1  0  0  0
  5  6  2  0  0  0
  6  7  1  0  0  0
  7 18  1  0  0  0
 18 19  1  0  0  0
 19 20  1  0  0  0
 20 21  1  0  0  0
 21 22  1  0  0  0
 22 23  1  0  0  0
 23 24  1  0  0  0
  4  8  1  0  0  0
  8  9  1  0  0  0
  9 10  2  0  0  0
 10 11  1  0  0  0
 11 12  1  0  0  0
 12 13  2  0  0  0
 13 14  1  0  0  0
 14 15  1  0  0  0
 14 16  2  0  0  0
 16 17  1  0  0  0
  7  2  1  0  0  0
 24 20  1  0  0  0
 17 11  2  0  0  0
 10  3  1  0  0  0
 23 25  1  0  0  0
M  END
> <minimizedAffinity>
-8.72057

$$$$
OCNT-2313799


 26 29  0  0  0  0  0  0  0  0999 V2000
   -4.2571   25.3322    4.9491 O   0  0  0  0  0  0  0  0  0  0  0  0
   -5.4174   25.7196    4.9384 C   0  0  0  0  0  0  0  0  0  0  0  0
   -6.5158   24.9159    5.1726 N   0  0  0  0  0  0  0  0  0  0  0  0
   -7.4310   25.2713    4.9266 H   0  0  0  0  0  0  0  0  0  0  0  0
   -5.7270   27.1267    4.6169 C   0  0  0  0  0  0  0  0  0  0  0  0
   -5.6556   27.5762    3.2913 C   0  0  0  0  0  0  0  0  0  0  0  0
   -5.9725   28.8960    2.9664 C   0  0  0  0  0  0  0  0  0  0  0  0
   -6.3595   29.8068    3.9596 C   0  0  0  0  0  0  0  0  0  0  0  0
   -6.4049   29.3769    5.2981 C   0  0  0  0  0  0  0  0  0  0  0  0
   -6.0826   28.0580    5.6009 C   0  0  0  0  0  0  0  0  0  0  0  0
   -6.1597   27.9731    6.9661 N   0  0  0  0  0  0  0  0  0  0  0  0
   -6.5847   29.1001    7.5625 N   0  0  0  0  0  0  0  0  0  0  0  0
   -6.7142   29.9588    6.5474 C   0  0  0  0  0  0  0  0  0  0  0  0
   -5.9375   27.1718    7.5481 H   0  0  0  0  0  0  0  0  0  0  0  0
   -6.3791   23.4992    5.4533 C   0  0  0  0  0  0  0  0  0  0  0  0
   -7.1629   22.6308    4.4384 C   0  0  0  0  0  0  0  0  0  0  0  0
   -8.6090   23.1191    4.0812 C   0  0  0  0  0  0  0  0  0  0  0  0
   -9.1205   21.6824    4.2859 C   0  0  0  0  0  0  0  0  0  0  0  0
   -7.8312   21.3572    5.0597 C   0  0  0  0  0  0  0  0  0  0  0  0
   -6.2058   22.3880    3.2355 C   0  0  0  0  0  0  0  0  0  0  0  0
   -6.5780   23.0573    1.9338 C   0  0  0  0  0  0  0  0  0  0  0  0
   -6.1011   24.3400    1.6284 C   0  0  0  0  0  0  0  0  0  0  0  0
   -6.4382   24.9564    0.4221 C   0  0  0  0  0  0  0  0  0  0  0  0
   -7.2483   24.2944   -0.4975 C   0  0  0  0  0  0  0  0  0  0  0  0
   -7.7168   23.0137   -0.2139 C   0  0  0  0  0  0  0  0  0  0  0  0
   -7.3801   22.3966    0.9924 C   0  0  0  0  0  0  0  0  0  0  0  0
  1  2  2  0  0  0
  2  3  1  0  0  0
  3 15  1  0  0  0
 15 16  1  0  0  0
 16 20  1  0  0  0
 20 21  1  0  0  0
 21 22  2  0  0  0
 22 23  1  0  0  0
 23 24  2  0  0  0
 24 25  1  0  0  0
 25 26  2  0  0  0
 16 17  1  0  0  0
 17 18  1  0  0  0
 18 19  1  0  0  0
  2  5  1  0  0  0
  5  6  1  0  0  0
  6  7  2  0  0  0
  7  8  1  0  0  0
  8  9  2  0  0  0
  9 10  1  0  0  0
 10 11  1  0  0  0
 11 12  1  0  0  0
 12 13  2  0  0  0
 19 16  1  0  0  0
 10  5  2  0  0  0
 26 21  1  0  0  0
 13  9  1  0  0  0
  3  4  1  0  0  0
 11 14  1  0  0  0
M  END
> <minimizedAffinity>
-9.64793

$$$$
OCNT-2313808


 25 28  0  0  0  0  0  0  0  0999 V2000
   -4.8263   27.0857    3.8935 O   0  0  0  0  0  0  0  0  0  0  0  0
   -4.3413   26.5396    4.8772 C   0  0  0  0  0  0  0  0  0  0  0  0
   -4.8139   25.3730    5.4315 N   0  0  0  0  0  0  0  0  0  0  0  0
   -4.3377   25.0535    6.2703 H   0  0  0  0  0  0  0  0  0  0  0  0
   -3.1864   27.0777    5.6016 C   0  0  0  0  0  0  0  0  0  0  0  0
   -1.8947   26.6064    5.4592 C   0  0  0  0  0  0  0  0  0  0  0  0
   -0.8294   27.4893    6.4661 S   0  0  0  0  0  0  0  0  0  0  0  0
   -2.1480   28.4374    7.0214 C   0  0  0  0  0  0  0  0  0  0  0  0
   -3.3221   28.1381    6.5054 N   0  0  0  0  0  0  0  0  0  0  0  0
   -1.9870   29.5830    8.0665 C   0  0  0  0  0  0  0  0  0  0  0  0
   -3.0181   30.0928    8.8199 C   0  0  0  0  0  0  0  0  0  0  0  0
   -2.5621   31.0796    9.6362 O   0  0  0  0  0  0  0  0  0  0  0  0
   -1.2287   31.1989    9.4012 C   0  0  0  0  0  0  0  0  0  0  0  0
   -0.8243   30.2985    8.4416 C   0  0  0  0  0  0  0  0  0  0  0  0
   -5.9838   24.6740    4.9456 C   0  0  0  0  0  0  0  0  0  0  0  0
   -5.4925   23.4847    4.1219 C   0  0  0  0  0  0  0  0  0  0  0  0
   -5.7419   22.0847    4.7475 C   0  0  0  0  0  0  0  0  0  0  0  0
   -6.1352   21.6589    3.3232 C   0  0  0  0  0  0  0  0  0  0  0  0
   -6.4421   23.0808    3.0463 N   0  0  0  0  0  0  0  0  0  0  0  0
   -6.0948   23.4904    1.6736 C   0  0  0  0  0  0  0  0  0  0  0  0
   -7.0199   22.8047    0.6471 C   0  0  0  0  0  0  0  0  0  0  0  0
   -7.9578   23.8078   -0.0038 C   0  0  0  0  0  0  0  0  0  0  0  0
   -7.2639   24.8411   -0.7027 O   0  0  0  0  0  0  0  0  0  0  0  0
   -5.9961   25.2016   -0.1557 C   0  0  0  0  0  0  0  0  0  0  0  0
   -5.9261   24.9903    1.3502 C   0  0  0  0  0  0  0  0  0  0  0  0
  1  2  2  0  0  0
  2  3  1  0  0  0
  3 15  1  0  0  0
 15 16  1  0  0  0
 16 17  1  0  0  0
 17 18  1  0  0  0
 18 19  1  0  0  0
 19 20  1  0  0  0
 20 21  1  0  0  0
 21 22  1  0  0  0
 22 23  1  0  0  0
 23 24  1  0  0  0
 24 25  1  0  0  0
  2  5  1  0  0  0
  5  6  2  0  0  0
  6  7  1  0  0  0
  7  8  1  0  0  0
  8 10  1  0  0  0
 10 11  2  0  0  0
 11 12  1  0  0  0
 12 13  1  0  0  0
 13 14  2  0  0  0
  8  9  2  0  0  0
 19 16  1  0  0  0
 25 20  1  0  0  0
  9  5  1  0  0  0
 14 10  1  0  0  0
  3  4  1  0  0  0
M  END
> <minimizedAffinity>
-8.34467

$$$$
OCNT-2313826


 24 26  0  0  0  0  0  0  0  0999 V2000
   -5.3346   30.3777    6.6401 C   0  0  0  0  0  0  0  0  0  0  0  0
   -6.2970   30.6424    7.3551 O   0  0  0  0  0  0  0  0  0  0  0  0
   -4.1451   31.0653    6.7495 N   0  0  0  0  0  0  0  0  0  0  0  0
   -3.3631   30.7311    6.2017 H   0  0  0  0  0  0  0  0  0  0  0  0
   -4.8962   27.3169    4.6411 C   0  0  0  0  0  0  0  0  0  0  0  0
   -5.8309   27.9852    3.8675 C   0  0  0  0  0  0  0  0  0  0  0  0
   -6.1249   29.2168    4.4868 C   0  0  0  0  0  0  0  0  0  0  0  0
   -5.3468   29.3261    5.6304 C   0  0  0  0  0  0  0  0  0  0  0  0
   -4.5417   28.1907    5.6586 N   0  0  0  0  0  0  0  0  0  0  0  0
   -3.4379   27.9986    6.5830 C   0  0  0  0  0  0  0  0  0  0  0  0
   -4.4072   25.9757    4.3829 C   0  0  0  0  0  0  0  0  0  0  0  0
   -4.6982   24.9865    5.0442 O   0  0  0  0  0  0  0  0  0  0  0  0
   -2.1601   25.9590    3.7305 C   0  0  0  0  0  0  0  0  0  0  0  0
   -3.5325   25.9697    3.3386 O   0  0  0  0  0  0  0  0  0  0  0  0
   -3.9380   32.1387    7.7372 C   0  0  0  0  0  0  0  0  0  0  0  0
   -4.3092   31.7467    9.1834 C   0  0  0  0  0  0  0  0  0  0  0  0
   -3.0592   32.5106    9.6544 C   0  0  0  0  0  0  0  0  0  0  0  0
   -2.4652   32.3300    8.2299 C   0  0  0  0  0  0  0  0  0  0  0  0
   -1.3990   31.1682    7.9424 C   0  0  0  0  0  0  0  0  0  0  0  0
   -1.0859   30.6971    6.6520 C   0  0  0  0  0  0  0  0  0  0  0  0
   -0.1253   29.7034    6.4368 C   0  0  0  0  0  0  0  0  0  0  0  0
    0.5564   29.1475    7.5132 C   0  0  0  0  0  0  0  0  0  0  0  0
    0.2753   29.5838    8.8021 C   0  0  0  0  0  0  0  0  0  0  0  0
   -0.6869   30.5765    9.0075 C   0  0  0  0  0  0  0  0  0  0  0  0
 13 14  1  0  0  0
 14 11  1  0  0  0
 11 12  2  0  0  0
 11  5  1  0  0  0
  5  6  2  0  0  0
  6  7  1  0  0  0
  7  8  2  0  0  0
  8  1  1  0  0  0
  1  2  2  0  0  0
  1  3  1  0  0  0
  3 15  1  0  0  0
 15 16  1  0  0  0
 16 17  1  0  0  0
 17 18  1  0  0  0
 18 19  1  0  0  0
 19 20  2  0  0  0
 20 21  1  0  0  0
 21 22  2  0  0  0
 22 23  1  0  0  0
 23 24  2  0  0  0
  8  9  1  0  0  0
  9 10  1  0  0  0
  9  5  1  0  0  0
 18 15  1  0  0  0
 24 19  1  0  0  0
  3  4  1  0  0  0
M  END
> <minimizedAffinity>
-8.85497

$$$$
OCNT-2313861


 24 25  0  0  0  0  0  0  0  0999 V2000
   -1.0823   29.7981    7.3476 N   0  0  0  0  0  0  0  0  0  0  0  0
   -1.4163   30.9579    6.4845 C   0  0  0  0  0  0  0  0  0  0  0  0
   -2.6147   31.7421    7.0462 C   0  0  0  0  0  0  0  0  0  0  0  0
   -2.3356   32.3187    8.3801 N   0  0  0  0  0  0  0  0  0  0  0  0
   -1.6353   31.3390    9.2465 C   0  0  0  0  0  0  0  0  0  0  0  0
   -1.6046   29.8841    8.7348 C   0  0  0  0  0  0  0  0  0  0  0  0
    0.4115   29.0798    7.1290 S   0  0  0  0  0  0  0  0  0  0  0  0
    0.9333   29.4766    5.8450 O   0  0  0  0  0  0  0  0  0  0  0  0
    1.1691   29.2086    8.3494 O   0  0  0  0  0  0  0  0  0  0  0  0
   -0.0795   27.4761    7.0369 N   0  0  0  0  0  0  0  0  0  0  0  0
    0.7524   26.8880    6.9895 H   0  0  0  0  0  0  0  0  0  0  0  0
   -0.4120   26.2776    4.8928 C   0  0  0  0  0  0  0  0  0  0  0  0
   -1.0580   27.1360    5.9741 C   0  0  0  0  0  0  0  0  0  0  0  0
   -2.2111   26.3846    6.6361 C   0  0  0  0  0  0  0  0  0  0  0  0
   -3.5745   32.8484    8.9918 C   0  0  0  0  0  0  0  0  0  0  0  0
   -4.8499   32.3853    8.2436 C   0  0  0  0  0  0  0  0  0  0  0  0
   -5.5381   33.5485    7.7675 O   0  0  0  0  0  0  0  0  0  0  0  0
   -5.4457   34.2012    8.4911 H   0  0  0  0  0  0  0  0  0  0  0  0
   -5.8165   31.5484    9.0891 C   0  0  0  0  0  0  0  0  0  0  0  0
   -6.3879   30.3404    8.3358 C   0  0  0  0  0  0  0  0  0  0  0  0
   -7.2560   30.7001    7.1305 C   0  0  0  0  0  0  0  0  0  0  0  0
   -7.2519   29.4469    6.2570 C   0  0  0  0  0  0  0  0  0  0  0  0
   -6.0543   28.6119    6.7081 C   0  0  0  0  0  0  0  0  0  0  0  0
   -5.2948   29.4825    7.6998 C   0  0  0  0  0  0  0  0  0  0  0  0
 12 13  1  0  0  0
 13 14  1  0  0  0
 13 10  1  0  0  0
 10  7  1  0  0  0
  7  8  2  0  0  0
  7  9  2  0  0  0
  7  1  1  0  0  0
  1  2  1  0  0  0
  2  3  1  0  0  0
  3  4  1  0  0  0
  4 15  1  0  0  0
 15 16  1  0  0  0
 16 17  1  0  0  0
 16 19  1  0  0  0
 19 20  1  0  0  0
 20 21  1  0  0  0
 21 22  1  0  0  0
 22 23  1  0  0  0
 23 24  1  0  0  0
  4  5  1  0  0  0
  5  6  1  0  0  0
  6  1  1  0  0  0
 24 20  1  0  0  0
 10 11  1  0  0  0
 17 18  1  0  0  0
M  END
> <minimizedAffinity>
-8.04526

$$$$
OCNT-2313871


 32 34  0  0  0  0  0  0  0  0999 V2000
   -4.9303   30.0811    7.5951 C   0  0  0  0  0  0  0  0  0  0  0  0
   -5.8077   29.6919    8.3631 O   0  0  0  0  0  0  0  0  0  0  0  0
   -5.1175   30.1625    6.2380 N   0  0  0  0  0  0  0  0  0  0  0  0
   -4.3256   30.4432    5.6586 H   0  0  0  0  0  0  0  0  0  0  0  0
   -3.3572   31.5785    8.9871 C   0  0  0  0  0  0  0  0  0  0  0  0
   -2.0502   31.8629    9.4053 C   0  0  0  0  0  0  0  0  0  0  0  0
   -0.9829   31.0429    9.0328 C   0  0  0  0  0  0  0  0  0  0  0  0
   -1.2195   29.9414    8.2138 C   0  0  0  0  0  0  0  0  0  0  0  0
   -2.5074   29.6632    7.7515 C   0  0  0  0  0  0  0  0  0  0  0  0
   -3.5883   30.4784    8.1332 C   0  0  0  0  0  0  0  0  0  0  0  0
    0.1253   28.8970    7.7120 S   0  0  0  0  0  0  0  0  0  0  0  0
    0.6047   29.5384    6.1277 C   0  0  0  0  0  0  0  0  0  0  0  0
   -0.4149   27.5665    7.4966 O   0  0  0  0  0  0  0  0  0  0  0  0
    1.2044   29.1196    8.6537 O   0  0  0  0  0  0  0  0  0  0  0  0
   -4.4029   32.3999    9.3064 O   0  0  0  0  0  0  0  0  0  0  0  0
   -4.8260   34.7349    9.9054 C   0  0  0  0  0  0  0  0  0  0  0  0
   -4.4635   33.7453    8.8036 C   0  0  0  0  0  0  0  0  0  0  0  0
   -5.2623   33.9509    7.5192 C   0  0  0  0  0  0  0  0  0  0  0  0
   -6.3517   29.7595    5.5901 C   0  0  0  0  0  0  0  0  0  0  0  0
   -6.0973   28.9209    4.3212 C   0  0  0  0  0  0  0  0  0  0  0  0
   -5.3225   27.6897    4.5696 N   0  0  0  0  0  0  0  0  0  0  0  0
   -4.7110   27.1831    3.3196 C   0  0  0  0  0  0  0  0  0  0  0  0
   -5.5660   26.1845    2.5027 C   0  0  0  0  0  0  0  0  0  0  0  0
   -6.0274   25.0697    3.3382 N   0  0  0  0  0  0  0  0  0  0  0  0
   -5.8385   25.1940    4.7819 C   0  0  0  0  0  0  0  0  0  0  0  0
   -6.1498   26.6436    5.2198 C   0  0  0  0  0  0  0  0  0  0  0  0
   -6.0048   23.8008    2.7935 C   0  0  0  0  0  0  0  0  0  0  0  0
   -6.3860   23.6349    1.5143 N   0  0  0  0  0  0  0  0  0  0  0  0
   -6.3394   22.3909    0.9993 C   0  0  0  0  0  0  0  0  0  0  0  0
   -5.9204   21.2943    1.7052 C   0  0  0  0  0  0  0  0  0  0  0  0
   -5.5395   21.5506    2.9949 C   0  0  0  0  0  0  0  0  0  0  0  0
   -5.5731   22.7764    3.5508 N   0  0  0  0  0  0  0  0  0  0  0  0
 16 17  1  0  0  0
 17 18  1  0  0  0
 17 15  1  0  0  0
 15  5  1  0  0  0
  5  6  1  0  0  0
  6  7  2  0  0  0
  7  8  1  0  0  0
  8 11  1  0  0  0
 11 12  1  0  0  0
 11 13  2  0  0  0
 11 14  2  0  0  0
  8  9  2  0  0  0
  9 10  1  0  0  0
 10  1  1  0  0  0
  1  2  2  0  0  0
  1  3  1  0  0  0
  3 19  1  0  0  0
 19 20  1  0  0  0
 20 21  1  0  0  0
 21 22  1  0  0  0
 22 23  1  0  0  0
 23 24  1  0  0  0
 24 27  1  0  0  0
 27 28  2  0  0  0
 28 29  1  0  0  0
 29 30  2  0  0  0
 30 31  1  0  0  0
 31 32  2  0  0  0
 24 25  1  0  0  0
 25 26  1  0  0  0
 10  5  2  0  0  0
 26 21  1  0  0  0
 32 27  1  0  0  0
  3  4  1  0  0  0
M  END
> <minimizedAffinity>
-9.35453

$$$$
OCNT-2313891


 28 30  0  0  0  0  0  0  0  0999 V2000
   -5.2331   29.4057    7.3225 C   0  0  0  0  0  0  0  0  0  0  0  0
   -6.5454   29.0593    6.9959 C   0  0  0  0  0  0  0  0  0  0  0  0
   -6.7757   28.0572    6.0503 C   0  0  0  0  0  0  0  0  0  0  0  0
   -5.7043   27.4015    5.4277 C   0  0  0  0  0  0  0  0  0  0  0  0
   -4.3964   27.7686    5.7566 C   0  0  0  0  0  0  0  0  0  0  0  0
   -4.1562   28.7732    6.7002 C   0  0  0  0  0  0  0  0  0  0  0  0
   -6.0223   26.4070    4.4903 N   0  0  0  0  0  0  0  0  0  0  0  0
   -5.4282   26.1474    3.2685 C   0  0  0  0  0  0  0  0  0  0  0  0
   -4.4906   26.7570    2.7628 O   0  0  0  0  0  0  0  0  0  0  0  0
   -6.7476   25.7329    4.7296 H   0  0  0  0  0  0  0  0  0  0  0  0
   -6.1190   24.9940    2.5206 C   0  0  0  0  0  0  0  0  0  0  0  0
   -5.4195   24.6877    1.2399 N   0  0  0  0  0  0  0  0  0  0  0  0
   -5.3818   23.2338    1.0040 C   0  0  0  0  0  0  0  0  0  0  0  0
   -6.7303   22.8701    0.4052 C   0  0  0  0  0  0  0  0  0  0  0  0
   -7.2167   24.1458   -0.2659 C   0  0  0  0  0  0  0  0  0  0  0  0
   -6.1799   25.2054    0.0839 C   0  0  0  0  0  0  0  0  0  0  0  0
   -4.9511   30.6908    8.5189 S   0  0  0  0  0  0  0  0  0  0  0  0
   -6.1788   31.4415    8.6703 O   0  0  0  0  0  0  0  0  0  0  0  0
   -4.3091   30.0672    9.6573 O   0  0  0  0  0  0  0  0  0  0  0  0
   -4.3435   32.8874    7.0768 C   0  0  0  0  0  0  0  0  0  0  0  0
   -3.8127   31.6743    7.7283 N   0  0  0  0  0  0  0  0  0  0  0  0
   -2.5367   31.8866    8.4555 C   0  0  0  0  0  0  0  0  0  0  0  0
   -1.4015   30.9526    8.1072 C   0  0  0  0  0  0  0  0  0  0  0  0
   -1.1878   30.5504    6.7814 C   0  0  0  0  0  0  0  0  0  0  0  0
   -0.1433   29.6810    6.4626 C   0  0  0  0  0  0  0  0  0  0  0  0
    0.7014   29.2063    7.4637 C   0  0  0  0  0  0  0  0  0  0  0  0
    0.5027   29.5999    8.7851 C   0  0  0  0  0  0  0  0  0  0  0  0
   -0.5428   30.4677    9.1062 C   0  0  0  0  0  0  0  0  0  0  0  0
 20 21  1  0  0  0
 21 22  1  0  0  0
 22 23  1  0  0  0
 23 24  2  0  0  0
 24 25  1  0  0  0
 25 26  2  0  0  0
 26 27  1  0  0  0
 27 28  2  0  0  0
 21 17  1  0  0  0
 17 18  2  0  0  0
 17 19  2  0  0  0
 17  1  1  0  0  0
  1  2  1  0  0  0
  2  3  2  0  0  0
  3  4  1  0  0  0
  4  7  1  0  0  0
  7  8  1  0  0  0
  8  9  2  0  0  0
  8 11  1  0  0  0
 11 12  1  0  0  0
 12 13  1  0  0  0
 13 14  1  0  0  0
 14 15  1  0  0  0
 15 16  1  0  0  0
  4  5  2  0  0  0
  5  6  1  0  0  0
 28 23  1  0  0  0
  6  1  2  0  0  0
 16 12  1  0  0  0
  7 10  1  0  0  0
M  END
> <minimizedAffinity>
-9.17730

$$$$
OCNT-2313919


 27 28  0  0  0  0  0  0  0  0999 V2000
   -1.0583   26.9217    6.3829 C   0  0  0  0  0  0  0  0  0  0  0  0
   -2.4318   26.9627    5.7931 C   0  0  0  0  0  0  0  0  0  0  0  0
   -3.3901   27.9363    6.0569 C   0  0  0  0  0  0  0  0  0  0  0  0
   -4.8369   27.6319    5.1856 S   0  0  0  0  0  0  0  0  0  0  0  0
   -4.2189   26.2367    4.4619 C   0  0  0  0  0  0  0  0  0  0  0  0
   -2.9283   25.9848    4.8657 C   0  0  0  0  0  0  0  0  0  0  0  0
   -3.2734   29.0957    6.9413 C   0  0  0  0  0  0  0  0  0  0  0  0
   -3.1674   29.0053    8.1632 O   0  0  0  0  0  0  0  0  0  0  0  0
   -3.2740   30.3302    6.3223 N   0  0  0  0  0  0  0  0  0  0  0  0
   -3.1354   30.3280    5.3178 H   0  0  0  0  0  0  0  0  0  0  0  0
   -2.9426   31.5370    7.0564 C   0  0  0  0  0  0  0  0  0  0  0  0
   -4.2030   32.2342    7.5410 C   0  0  0  0  0  0  0  0  0  0  0  0
   -4.2678   33.2195    8.2597 O   0  0  0  0  0  0  0  0  0  0  0  0
   -5.3267   31.6838    7.0367 O   0  0  0  0  0  0  0  0  0  0  0  0
   -6.0479   32.2187    7.4305 H   0  0  0  0  0  0  0  0  0  0  0  0
   -4.9493   25.4635    3.5780 N   0  0  0  0  0  0  0  0  0  0  0  0
   -4.6346   25.1847    2.2622 C   0  0  0  0  0  0  0  0  0  0  0  0
   -3.6679   25.5918    1.6272 O   0  0  0  0  0  0  0  0  0  0  0  0
   -5.7797   25.0339    3.9680 H   0  0  0  0  0  0  0  0  0  0  0  0
   -5.6222   24.3397    1.5241 C   0  0  0  0  0  0  0  0  0  0  0  0
   -6.3439   24.9836    0.4995 C   0  0  0  0  0  0  0  0  0  0  0  0
   -7.2930   24.2885   -0.2511 C   0  0  0  0  0  0  0  0  0  0  0  0
   -7.5186   22.9456    0.0142 C   0  0  0  0  0  0  0  0  0  0  0  0
   -8.4281   22.2750   -0.7034 F   0  0  0  0  0  0  0  0  0  0  0  0
   -6.8109   22.2835    1.0097 C   0  0  0  0  0  0  0  0  0  0  0  0
   -5.8573   22.9759    1.7652 C   0  0  0  0  0  0  0  0  0  0  0  0
   -4.9983   22.0547    2.9493 Cl  0  0  0  0  0  0  0  0  0  0  0  0
  1  2  1  0  0  0
  2  3  2  0  0  0
  3  7  1  0  0  0
  7  8  2  0  0  0
  7  9  1  0  0  0
  9 11  1  0  0  0
 11 12  1  0  0  0
 12 13  2  0  0  0
 12 14  1  0  0  0
  3  4  1  0  0  0
  4  5  1  0  0  0
  5 16  1  0  0  0
 16 17  1  0  0  0
 17 18  2  0  0  0
 17 20  1  0  0  0
 20 21  1  0  0  0
 21 22  2  0  0  0
 22 23  1  0  0  0
 23 24  1  0  0  0
 23 25  2  0  0  0
 25 26  1  0  0  0
 26 27  1  0  0  0
  5  6  2  0  0  0
  6  2  1  0  0  0
 26 20  2  0  0  0
  9 10  1  0  0  0
 14 15  1  0  0  0
 16 19  1  0  0  0
M  END
> <minimizedAffinity>
-8.91169

$$$$
OCNT-2313933


 24 28  0  0  0  0  0  0  0  0999 V2000
   -6.1581   28.5314    7.8790 N   0  0  0  0  0  0  0  0  0  0  0  0
   -5.9581   27.5363    7.8203 H   0  0  0  0  0  0  0  0  0  0  0  0
   -5.0355   29.2701    8.2526 C   0  0  0  0  0  0  0  0  0  0  0  0
   -5.1280   30.2342    9.2094 N   0  0  0  0  0  0  0  0  0  0  0  0
   -4.0182   30.9164    9.5689 C   0  0  0  0  0  0  0  0  0  0  0  0
   -2.7690   30.7840    9.0871 N   0  0  0  0  0  0  0  0  0  0  0  0
   -2.7236   29.8279    8.1403 C   0  0  0  0  0  0  0  0  0  0  0  0
   -3.7711   29.0491    7.6820 C   0  0  0  0  0  0  0  0  0  0  0  0
   -3.3205   28.1874    6.7119 N   0  0  0  0  0  0  0  0  0  0  0  0
   -2.0161   28.3985    6.5512 N   0  0  0  0  0  0  0  0  0  0  0  0
   -1.6626   29.3838    7.3997 N   0  0  0  0  0  0  0  0  0  0  0  0
   -0.2778   29.8816    7.5267 C   0  0  0  0  0  0  0  0  0  0  0  0
    0.8287   29.0545    8.1397 C   0  0  0  0  0  0  0  0  0  0  0  0
    0.8471   29.3493    6.6694 C   0  0  0  0  0  0  0  0  0  0  0  0
   -6.9207   29.0711    6.7697 C   0  0  0  0  0  0  0  0  0  0  0  0
   -6.2378   29.0924    4.3278 C   0  0  0  0  0  0  0  0  0  0  0  0
   -5.8769   28.4510    3.1389 C   0  0  0  0  0  0  0  0  0  0  0  0
   -5.8097   27.0755    3.1498 C   0  0  0  0  0  0  0  0  0  0  0  0
   -6.0873   26.3462    4.2817 C   0  0  0  0  0  0  0  0  0  0  0  0
   -6.4460   26.9499    5.4689 C   0  0  0  0  0  0  0  0  0  0  0  0
   -6.5184   28.3522    5.5015 C   0  0  0  0  0  0  0  0  0  0  0  0
   -5.9673   25.0067    4.0784 O   0  0  0  0  0  0  0  0  0  0  0  0
   -5.5839   24.9775    2.6877 C   0  0  0  0  0  0  0  0  0  0  0  0
   -5.4795   26.2871    2.0922 O   0  0  0  0  0  0  0  0  0  0  0  0
 16 17  2  0  0  0
 17 18  1  0  0  0
 18 19  2  0  0  0
 19 20  1  0  0  0
 20 21  2  0  0  0
 21 15  1  0  0  0
 15  1  1  0  0  0
  1  3  1  0  0  0
  3  4  1  0  0  0
  4  5  2  0  0  0
  5  6  1  0  0  0
  6  7  2  0  0  0
  7  8  1  0  0  0
  8  9  1  0  0  0
  9 10  2  0  0  0
 10 11  1  0  0  0
 11 12  1  0  0  0
 12 13  1  0  0  0
 13 14  1  0  0  0
 19 22  1  0  0  0
 22 23  1  0  0  0
 23 24  1  0  0  0
 21 16  1  0  0  0
  8  3  2  0  0  0
 14 12  1  0  0  0
 24 18  1  0  0  0
 11  7  1  0  0  0
  1  2  1  0  0  0
M  END
> <minimizedAffinity>
-8.82493

$$$$
OCNT-2313944


 35 38  0  0  0  0  0  0  0  0999 V2000
   -4.7455   28.9960    6.9324 C   0  0  0  0  0  0  0  0  0  0  0  0
   -3.2899   28.5808    6.8616 C   0  0  0  0  0  0  0  0  0  0  0  0
   -2.8198   27.5847    6.0181 C   0  0  0  0  0  0  0  0  0  0  0  0
   -1.4719   27.4577    6.1847 N   0  0  0  0  0  0  0  0  0  0  0  0
   -1.0242   28.3603    7.1180 C   0  0  0  0  0  0  0  0  0  0  0  0
    0.2776   28.5798    7.5877 C   0  0  0  0  0  0  0  0  0  0  0  0
    0.4660   29.5750    8.5476 C   0  0  0  0  0  0  0  0  0  0  0  0
   -0.6085   30.3235    9.0145 C   0  0  0  0  0  0  0  0  0  0  0  0
   -1.9032   30.0916    8.5314 C   0  0  0  0  0  0  0  0  0  0  0  0
   -2.1338   29.0872    7.5630 C   0  0  0  0  0  0  0  0  0  0  0  0
   -0.8813   26.8047    5.6879 H   0  0  0  0  0  0  0  0  0  0  0  0
   -4.7400   30.4168    7.5019 C   0  0  0  0  0  0  0  0  0  0  0  0
   -4.2711   31.4995    6.7254 C   0  0  0  0  0  0  0  0  0  0  0  0
   -4.2702   32.8063    7.2205 C   0  0  0  0  0  0  0  0  0  0  0  0
   -4.7399   33.0577    8.5046 C   0  0  0  0  0  0  0  0  0  0  0  0
   -4.7491   34.6671    9.1111 Cl  0  0  0  0  0  0  0  0  0  0  0  0
   -5.2051   32.0152    9.2983 C   0  0  0  0  0  0  0  0  0  0  0  0
   -5.2047   30.7049    8.8044 C   0  0  0  0  0  0  0  0  0  0  0  0
   -5.8168   29.4881    9.8745 Cl  0  0  0  0  0  0  0  0  0  0  0  0
   -5.5461   28.8160    5.6241 C   0  0  0  0  0  0  0  0  0  0  0  0
   -5.6283   23.5854    2.6458 C   0  0  0  0  0  0  0  0  0  0  0  0
   -4.1314   23.2442    2.6963 C   0  0  0  0  0  0  0  0  0  0  0  0
   -6.2912   23.3499    4.0181 C   0  0  0  0  0  0  0  0  0  0  0  0
   -5.9944   24.6221    4.7998 C   0  0  0  0  0  0  0  0  0  0  0  0
   -5.8489   25.6545    3.7881 N   0  0  0  0  0  0  0  0  0  0  0  0
   -5.7823   27.0123    3.9690 C   0  0  0  0  0  0  0  0  0  0  0  0
   -5.7452   27.8037    3.0317 O   0  0  0  0  0  0  0  0  0  0  0  0
   -5.7598   27.4158    5.2769 N   0  0  0  0  0  0  0  0  0  0  0  0
   -5.8614   25.0877    2.4495 C   0  0  0  0  0  0  0  0  0  0  0  0
   -5.4448   26.7325    5.9469 H   0  0  0  0  0  0  0  0  0  0  0  0
   -7.7652   22.8945   -0.4329 C   0  0  0  0  0  0  0  0  0  0  0  0
   -7.1288   23.5085    0.7056 N   0  0  0  0  0  0  0  0  0  0  0  0
   -6.3105   22.7782    1.5419 C   0  0  0  0  0  0  0  0  0  0  0  0
   -6.1185   21.5750    1.3887 O   0  0  0  0  0  0  0  0  0  0  0  0
   -7.1181   24.5204    0.7500 H   0  0  0  0  0  0  0  0  0  0  0  0
 31 32  1  0  0  0
 32 33  1  0  0  0
 33 34  2  0  0  0
 33 21  1  0  0  0
 21 22  1  0  0  0
 21 23  1  0  0  0
 23 24  1  0  0  0
 24 25  1  0  0  0
 25 26  1  0  0  0
 26 27  2  0  0  0
 26 28  1  0  0  0
 28 20  1  0  0  0
 20  1  1  0  0  0
  1 12  1  0  0  0
 12 13  1  0  0  0
 13 14  2  0  0  0
 14 15  1  0  0  0
 15 16  1  0  0  0
 15 17  2  0  0  0
 17 18  1  0  0  0
 18 19  1  0  0  0
  1  2  1  0  0  0
  2  3  2  0  0  0
  3  4  1  0  0  0
  4  5  1  0  0  0
  5  6  2  0  0  0
  6  7  1  0  0  0
  7  8  2  0  0  0
  8  9  1  0  0  0
  9 10  2  0  0  0
 25 29  1  0  0  0
 29 21  1  0  0  0
 18 12  2  0  0  0
 10  2  1  0  0  0
 10  5  1  0  0  0
 32 35  1  0  0  0
 28 30  1  0  0  0
  4 11  1  0  0  0
M  END
> <minimizedAffinity>
-11.34406

$$$$
OCNT-2313982


 26 27  0  0  0  0  0  0  0  0999 V2000
   -1.2199   28.7547    8.3066 C   0  0  0  0  0  0  0  0  0  0  0  0
   -0.3807   28.0886    7.2804 N   0  0  0  0  0  0  0  0  0  0  0  0
    0.5164   29.0345    6.5995 C   0  0  0  0  0  0  0  0  0  0  0  0
   -4.7796   27.5093    5.4162 C   0  0  0  0  0  0  0  0  0  0  0  0
   -3.3291   27.1338    5.3655 C   0  0  0  0  0  0  0  0  0  0  0  0
   -2.5390   27.7637    6.2791 N   0  0  0  0  0  0  0  0  0  0  0  0
   -1.2199   27.4784    6.3177 C   0  0  0  0  0  0  0  0  0  0  0  0
   -0.6388   26.5595    5.4449 C   0  0  0  0  0  0  0  0  0  0  0  0
   -1.4313   25.9127    4.5040 C   0  0  0  0  0  0  0  0  0  0  0  0
   -2.7976   26.2010    4.4739 C   0  0  0  0  0  0  0  0  0  0  0  0
   -3.6252   25.5221    3.4960 N   0  0  0  0  0  0  0  0  0  0  0  0
   -4.2296   24.5047    3.8581 O   0  0  0  0  0  0  0  0  0  0  0  0
   -3.6564   26.0026    2.3462 O   0  0  0  0  0  0  0  0  0  0  0  0
   -0.8447   30.2486    8.3954 C   0  0  0  0  0  0  0  0  0  0  0  0
   -1.9617   31.1440    8.0516 N   0  0  0  0  0  0  0  0  0  0  0  0
   -2.2000   31.3863    6.6322 C   0  0  0  0  0  0  0  0  0  0  0  0
   -2.4368   31.9760    9.0727 C   0  0  0  0  0  0  0  0  0  0  0  0
   -2.1221   31.7947   10.2510 O   0  0  0  0  0  0  0  0  0  0  0  0
   -3.4078   33.0832    8.6774 C   0  0  0  0  0  0  0  0  0  0  0  0
   -4.7871   32.8746    9.2982 C   0  0  0  0  0  0  0  0  0  0  0  0
   -5.4382   31.6241    8.7940 C   0  0  0  0  0  0  0  0  0  0  0  0
   -5.6010   30.4877    9.4470 N   0  0  0  0  0  0  0  0  0  0  0  0
   -6.1842   29.6279    8.5556 C   0  0  0  0  0  0  0  0  0  0  0  0
   -6.4540   30.2711    7.3665 C   0  0  0  0  0  0  0  0  0  0  0  0
   -5.9795   31.5420    7.5360 N   0  0  0  0  0  0  0  0  0  0  0  0
   -5.9854   32.2867    6.8490 H   0  0  0  0  0  0  0  0  0  0  0  0
  4  5  1  0  0  0
  5  6  1  0  0  0
  6  7  2  0  0  0
  7  2  1  0  0  0
  2  3  1  0  0  0
  2  1  1  0  0  0
  1 14  1  0  0  0
 14 15  1  0  0  0
 15 16  1  0  0  0
 15 17  1  0  0  0
 17 18  2  0  0  0
 17 19  1  0  0  0
 19 20  1  0  0  0
 20 21  1  0  0  0
 21 22  2  0  0  0
 22 23  1  0  0  0
 23 24  2  0  0  0
 24 25  1  0  0  0
  7  8  1  0  0  0
  8  9  2  0  0  0
  9 10  1  0  0  0
 10 11  1  0  0  0
 11 12  2  0  0  0
 11 13  1  0  0  0
 10  5  2  0  0  0
 25 21  1  0  0  0
 25 26  1  0  0  0
M  CHG 1  11   1
M  CHG 1  13  -1
M  END
> <minimizedAffinity>
-7.75555

$$$$
OCNT-2313984


 24 26  0  0  0  0  0  0  0  0999 V2000
   -4.8610   31.0762    6.2728 N   0  0  0  0  0  0  0  0  0  0  0  0
   -5.4432   31.5523    5.5806 H   0  0  0  0  0  0  0  0  0  0  0  0
   -5.7760   30.4034    7.2270 C   0  0  0  0  0  0  0  0  0  0  0  0
   -6.3573   31.4102    8.2413 C   0  0  0  0  0  0  0  0  0  0  0  0
   -5.0836   29.2676    8.0075 C   0  0  0  0  0  0  0  0  0  0  0  0
   -6.9375   29.7400    6.4068 C   0  0  0  0  0  0  0  0  0  0  0  0
   -5.4136   25.9619    2.2293 C   0  0  0  0  0  0  0  0  0  0  0  0
   -5.7798   26.9363    3.3088 C   0  0  0  0  0  0  0  0  0  0  0  0
   -5.8783   28.3032    3.0273 C   0  0  0  0  0  0  0  0  0  0  0  0
   -6.2514   29.2081    4.0243 C   0  0  0  0  0  0  0  0  0  0  0  0
   -6.5386   28.7618    5.3202 C   0  0  0  0  0  0  0  0  0  0  0  0
   -6.4606   27.3900    5.5931 C   0  0  0  0  0  0  0  0  0  0  0  0
   -6.0877   26.4854    4.5965 C   0  0  0  0  0  0  0  0  0  0  0  0
   -3.9273   32.0718    6.8233 C   0  0  0  0  0  0  0  0  0  0  0  0
   -2.6934   31.5003    7.5036 C   0  0  0  0  0  0  0  0  0  0  0  0
   -2.4201   31.8362    8.8350 C   0  0  0  0  0  0  0  0  0  0  0  0
   -1.2998   31.3009    9.4743 C   0  0  0  0  0  0  0  0  0  0  0  0
   -0.4913   30.4285    8.7338 C   0  0  0  0  0  0  0  0  0  0  0  0
    0.6968   29.6868    8.9760 C   0  0  0  0  0  0  0  0  0  0  0  0
    1.0034   28.9989    7.8198 C   0  0  0  0  0  0  0  0  0  0  0  0
    0.0422   29.2988    6.8877 N   0  0  0  0  0  0  0  0  0  0  0  0
   -0.8715   30.1640    7.4238 C   0  0  0  0  0  0  0  0  0  0  0  0
   -1.9372   30.6480    6.7621 N   0  0  0  0  0  0  0  0  0  0  0  0
   -0.0090   28.9506    5.9421 H   0  0  0  0  0  0  0  0  0  0  0  0
  7  8  1  0  0  0
  8  9  1  0  0  0
  9 10  2  0  0  0
 10 11  1  0  0  0
 11  6  1  0  0  0
  6  3  1  0  0  0
  3  4  1  0  0  0
  3  5  1  0  0  0
  3  1  1  0  0  0
  1 14  1  0  0  0
 14 15  1  0  0  0
 15 16  1  0  0  0
 16 17  2  0  0  0
 17 18  1  0  0  0
 18 19  1  0  0  0
 19 20  2  0  0  0
 20 21  1  0  0  0
 21 22  1  0  0  0
 22 23  1  0  0  0
 11 12  2  0  0  0
 12 13  1  0  0  0
 13  8  2  0  0  0
 23 15  2  0  0  0
 22 18  2  0  0  0
  1  2  1  0  0  0
 21 24  1  0  0  0
M  END
> <minimizedAffinity>
-9.62471

$$$$
OCNT-2313985


 28 31  0  0  0  0  0  0  0  0999 V2000
   -5.2015   27.2945    3.3744 O   0  0  0  0  0  0  0  0  0  0  0  0
   -5.7753   26.5521    4.1587 C   0  0  0  0  0  0  0  0  0  0  0  0
   -6.2089   26.8669    5.4284 N   0  0  0  0  0  0  0  0  0  0  0  0
   -6.1006   25.2421    3.8546 N   0  0  0  0  0  0  0  0  0  0  0  0
   -6.8584   26.2064    5.8274 H   0  0  0  0  0  0  0  0  0  0  0  0
   -5.9812   24.6211    4.6443 H   0  0  0  0  0  0  0  0  0  0  0  0
   -5.6785   24.6366    2.5858 C   0  0  0  0  0  0  0  0  0  0  0  0
   -5.8969   25.5655    1.3779 C   0  0  0  0  0  0  0  0  0  0  0  0
   -6.3151   24.6398    0.2426 C   0  0  0  0  0  0  0  0  0  0  0  0
   -7.2124   23.6251    0.9353 C   0  0  0  0  0  0  0  0  0  0  0  0
   -6.5426   23.3808    2.2867 C   0  0  0  0  0  0  0  0  0  0  0  0
   -5.5558   22.2140    2.2795 C   0  0  0  0  0  0  0  0  0  0  0  0
   -4.4579   22.6839    3.1223 N   0  0  0  0  0  0  0  0  0  0  0  0
   -4.2449   24.0707    2.6769 C   0  0  0  0  0  0  0  0  0  0  0  0
   -3.6165   22.1297    2.9597 H   0  0  0  0  0  0  0  0  0  0  0  0
   -6.0146   28.0751    6.1291 C   0  0  0  0  0  0  0  0  0  0  0  0
   -7.0121   29.0208    6.3259 C   0  0  0  0  0  0  0  0  0  0  0  0
   -6.7137   30.1803    7.0256 C   0  0  0  0  0  0  0  0  0  0  0  0
   -7.6736   31.0947    7.2241 F   0  0  0  0  0  0  0  0  0  0  0  0
   -5.4368   30.4190    7.5305 C   0  0  0  0  0  0  0  0  0  0  0  0
   -4.3984   29.4989    7.3466 C   0  0  0  0  0  0  0  0  0  0  0  0
   -4.7246   28.3278    6.6344 C   0  0  0  0  0  0  0  0  0  0  0  0
   -3.1265   29.7261    7.8426 N   0  0  0  0  0  0  0  0  0  0  0  0
   -1.9298   29.1246    7.2264 C   0  0  0  0  0  0  0  0  0  0  0  0
   -0.8483   28.8814    8.2945 C   0  0  0  0  0  0  0  0  0  0  0  0
   -0.4304   30.0658    8.9883 O   0  0  0  0  0  0  0  0  0  0  0  0
   -1.4507   31.0710    9.0614 C   0  0  0  0  0  0  0  0  0  0  0  0
   -2.8824   30.5092    9.0665 C   0  0  0  0  0  0  0  0  0  0  0  0
  1  2  2  0  0  0
  2  3  1  0  0  0
  3 16  1  0  0  0
 16 17  1  0  0  0
 17 18  2  0  0  0
 18 19  1  0  0  0
 18 20  1  0  0  0
 20 21  2  0  0  0
 21 23  1  0  0  0
 23 24  1  0  0  0
 24 25  1  0  0  0
 25 26  1  0  0  0
 26 27  1  0  0  0
 27 28  1  0  0  0
 21 22  1  0  0  0
  2  4  1  0  0  0
  7  4  1  0  0  0
  7  8  1  0  0  0
  8  9  1  0  0  0
  9 10  1  0  0  0
 10 11  1  0  0  0
 11 12  1  0  0  0
 12 13  1  0  0  0
 13 14  1  0  0  0
 22 16  2  0  0  0
 11  7  1  0  0  0
 28 23  1  0  0  0
 14  7  1  0  0  0
  3  5  1  0  0  0
  4  6  1  0  0  0
 13 15  1  0  0  0
M  END
> <minimizedAffinity>
-9.30670

$$$$
OCNT-2313994


 23 25  0  0  0  0  0  0  0  0999 V2000
   -4.2382   27.5701    4.7358 N   0  0  0  0  0  0  0  0  0  0  0  0
   -3.3227   26.4363    4.5278 C   0  0  0  0  0  0  0  0  0  0  0  0
   -3.3913   25.9869    3.0681 C   0  0  0  0  0  0  0  0  0  0  0  0
   -4.8282   25.6231    2.6608 C   0  0  0  0  0  0  0  0  0  0  0  0
   -5.7634   26.8040    2.9720 C   0  0  0  0  0  0  0  0  0  0  0  0
   -5.6421   27.2457    4.4313 C   0  0  0  0  0  0  0  0  0  0  0  0
   -2.7669   28.7482    7.8619 C   0  0  0  0  0  0  0  0  0  0  0  0
   -2.8484   28.1824    6.6124 C   0  0  0  0  0  0  0  0  0  0  0  0
   -4.0940   28.1562    6.0163 C   0  0  0  0  0  0  0  0  0  0  0  0
   -5.1702   28.6481    6.6574 N   0  0  0  0  0  0  0  0  0  0  0  0
   -4.9885   29.1940    7.8738 C   0  0  0  0  0  0  0  0  0  0  0  0
   -6.1982   29.7188    8.5806 C   0  0  0  0  0  0  0  0  0  0  0  0
   -3.8146   29.2660    8.5164 N   0  0  0  0  0  0  0  0  0  0  0  0
   -1.5097   28.7701    8.4358 O   0  0  0  0  0  0  0  0  0  0  0  0
    0.6043   29.2764    7.3518 C   0  0  0  0  0  0  0  0  0  0  0  0
   -0.4640   28.2309    7.6252 C   0  0  0  0  0  0  0  0  0  0  0  0
   -4.8721   25.2283    1.1747 C   0  0  0  0  0  0  0  0  0  0  0  0
   -6.0265   24.3515    0.8293 C   0  0  0  0  0  0  0  0  0  0  0  0
   -6.5060   23.2442    1.4961 C   0  0  0  0  0  0  0  0  0  0  0  0
   -7.5783   22.8186    0.7626 N   0  0  0  0  0  0  0  0  0  0  0  0
   -7.7103   23.6638   -0.3010 C   0  0  0  0  0  0  0  0  0  0  0  0
   -6.7893   24.5989   -0.2886 N   0  0  0  0  0  0  0  0  0  0  0  0
   -8.1712   22.0261    0.9664 H   0  0  0  0  0  0  0  0  0  0  0  0
 15 16  1  0  0  0
 16 14  1  0  0  0
 14  7  1  0  0  0
  7  8  2  0  0  0
  8  9  1  0  0  0
  9  1  1  0  0  0
  1  2  1  0  0  0
  2  3  1  0  0  0
  3  4  1  0  0  0
  4 17  1  0  0  0
 17 18  1  0  0  0
 18 19  2  0  0  0
 19 20  1  0  0  0
 20 21  1  0  0  0
 21 22  2  0  0  0
  4  5  1  0  0  0
  5  6  1  0  0  0
  9 10  2  0  0  0
 10 11  1  0  0  0
 11 12  1  0  0  0
 11 13  2  0  0  0
 13  7  1  0  0  0
  6  1  1  0  0  0
 22 18  1  0  0  0
 20 23  1  0  0  0
M  END
> <minimizedAffinity>
-7.81440

$$$$
OCNT-2313997


 27 30  0  0  0  0  0  0  0  0999 V2000
   -5.7965   23.9168    2.0073 C   0  0  0  0  0  0  0  0  0  0  0  0
   -6.8861   24.0195    1.4533 O   0  0  0  0  0  0  0  0  0  0  0  0
   -5.1523   24.9873    2.5862 N   0  0  0  0  0  0  0  0  0  0  0  0
   -3.8285   25.0130    3.1813 C   0  0  0  0  0  0  0  0  0  0  0  0
   -3.5150   26.4955    3.3503 C   0  0  0  0  0  0  0  0  0  0  0  0
   -4.8897   27.1312    3.5809 C   0  0  0  0  0  0  0  0  0  0  0  0
   -5.7819   26.2946    2.6439 C   0  0  0  0  0  0  0  0  0  0  0  0
   -4.2065   20.7602    3.6494 C   0  0  0  0  0  0  0  0  0  0  0  0
   -5.3776   21.5759    3.1517 C   0  0  0  0  0  0  0  0  0  0  0  0
   -5.8313   21.3353    1.7237 C   0  0  0  0  0  0  0  0  0  0  0  0
   -5.0914   22.6054    2.0592 C   0  0  0  0  0  0  0  0  0  0  0  0
   -6.4471   21.8321    4.2101 C   0  0  0  0  0  0  0  0  0  0  0  0
   -6.1209   22.3427    5.4783 C   0  0  0  0  0  0  0  0  0  0  0  0
   -7.0970   22.5532    6.4562 C   0  0  0  0  0  0  0  0  0  0  0  0
   -8.4283   22.2522    6.1891 C   0  0  0  0  0  0  0  0  0  0  0  0
   -8.7810   21.7342    4.9480 C   0  0  0  0  0  0  0  0  0  0  0  0
   -7.7995   21.5228    3.9758 C   0  0  0  0  0  0  0  0  0  0  0  0
   -5.2812   26.9709    4.9922 N   0  0  0  0  0  0  0  0  0  0  0  0
   -5.8877   26.1641    5.1495 H   0  0  0  0  0  0  0  0  0  0  0  0
   -5.5590   28.0772    5.8085 C   0  0  0  0  0  0  0  0  0  0  0  0
   -6.8241   28.6804    5.8385 C   0  0  0  0  0  0  0  0  0  0  0  0
   -7.0345   29.8172    6.6093 C   0  0  0  0  0  0  0  0  0  0  0  0
   -6.0753   30.4155    7.3388 N   0  0  0  0  0  0  0  0  0  0  0  0
   -4.8472   29.8569    7.2796 C   0  0  0  0  0  0  0  0  0  0  0  0
   -4.5395   28.7203    6.5369 C   0  0  0  0  0  0  0  0  0  0  0  0
   -3.1904   28.2502    6.5567 C   0  0  0  0  0  0  0  0  0  0  0  0
   -2.0950   27.8662    6.5589 N   0  0  0  0  0  0  0  0  0  0  0  0
  9  8  1  0  0  0
  9 12  1  0  0  0
 12 13  2  0  0  0
 13 14  1  0  0  0
 14 15  2  0  0  0
 15 16  1  0  0  0
 16 17  2  0  0  0
  9 10  1  0  0  0
 10 11  1  0  0  0
 11  1  1  0  0  0
  1  2  2  0  0  0
  1  3  1  0  0  0
  3  4  1  0  0  0
  4  5  1  0  0  0
  5  6  1  0  0  0
  6 18  1  0  0  0
 18 20  1  0  0  0
 20 21  2  0  0  0
 21 22  1  0  0  0
 22 23  2  0  0  0
 23 24  1  0  0  0
 24 25  2  0  0  0
 25 26  1  0  0  0
 26 27  3  0  0  0
  6  7  1  0  0  0
 11  9  1  0  0  0
  7  3  1  0  0  0
 17 12  1  0  0  0
 25 20  1  0  0  0
 18 19  1  0  0  0
M  END
> <minimizedAffinity>
-8.45668

$$$$
OCNT-2314003


 22 24  0  0  0  0  0  0  0  0999 V2000
   -2.7663   26.0853    3.1905 C   0  0  0  0  0  0  0  0  0  0  0  0
   -3.8681   26.6665    3.9435 N   0  0  0  0  0  0  0  0  0  0  0  0
   -3.7543   27.1963    5.2389 C   0  0  0  0  0  0  0  0  0  0  0  0
   -4.7507   27.6338    5.8215 O   0  0  0  0  0  0  0  0  0  0  0  0
   -2.4393   27.2384    5.9249 C   0  0  0  0  0  0  0  0  0  0  0  0
   -1.5292   26.2391    5.8947 N   0  0  0  0  0  0  0  0  0  0  0  0
   -0.4855   26.7163    6.5983 N   0  0  0  0  0  0  0  0  0  0  0  0
   -0.6687   27.9751    7.0787 C   0  0  0  0  0  0  0  0  0  0  0  0
    0.2137   28.6829    7.8091 N   0  0  0  0  0  0  0  0  0  0  0  0
   -0.2523   29.9169    8.1305 C   0  0  0  0  0  0  0  0  0  0  0  0
   -1.4926   30.4323    7.7689 C   0  0  0  0  0  0  0  0  0  0  0  0
   -1.9944   32.1739    8.2953 Br  0  0  0  0  0  0  0  0  0  0  0  0
   -2.3662   29.6509    7.0129 C   0  0  0  0  0  0  0  0  0  0  0  0
   -1.9296   28.3623    6.6550 C   0  0  0  0  0  0  0  0  0  0  0  0
    0.3379   26.1394    6.7178 H   0  0  0  0  0  0  0  0  0  0  0  0
   -5.1097   26.9039    3.2150 C   0  0  0  0  0  0  0  0  0  0  0  0
   -5.6921   25.6334    2.6461 C   0  0  0  0  0  0  0  0  0  0  0  0
   -5.8318   25.4586    1.2662 C   0  0  0  0  0  0  0  0  0  0  0  0
   -6.3864   24.2768    0.7989 C   0  0  0  0  0  0  0  0  0  0  0  0
   -6.8071   23.2749    1.5992 N   0  0  0  0  0  0  0  0  0  0  0  0
   -6.6691   23.4647    2.9288 C   0  0  0  0  0  0  0  0  0  0  0  0
   -6.1266   24.6085    3.4922 C   0  0  0  0  0  0  0  0  0  0  0  0
  1  2  1  0  0  0
  2 16  1  0  0  0
 16 17  1  0  0  0
 17 18  2  0  0  0
 18 19  1  0  0  0
 19 20  2  0  0  0
 20 21  1  0  0  0
 21 22  2  0  0  0
  2  3  1  0  0  0
  3  4  2  0  0  0
  3  5  1  0  0  0
  5  6  2  0  0  0
  6  7  1  0  0  0
  7  8  1  0  0  0
  8  9  1  0  0  0
  9 10  2  0  0  0
 10 11  1  0  0  0
 11 12  1  0  0  0
 11 13  2  0  0  0
 13 14  1  0  0  0
 22 17  1  0  0  0
 14  5  1  0  0  0
 14  8  2  0  0  0
  7 15  1  0  0  0
M  END
> <minimizedAffinity>
-8.21507

$$$$
OCNT-2314020


 25 27  0  0  0  0  0  0  0  0999 V2000
   -2.8138   30.1264    8.0348 C   0  0  0  0  0  0  0  0  0  0  0  0
   -4.2654   30.5328    7.6932 C   0  0  0  0  0  0  0  0  0  0  0  0
   -4.7022   30.2604    6.2523 C   0  0  0  0  0  0  0  0  0  0  0  0
   -4.7510   28.8504    5.8654 N   0  0  0  0  0  0  0  0  0  0  0  0
   -5.4910   28.5504    4.7161 C   0  0  0  0  0  0  0  0  0  0  0  0
   -6.0212   29.4039    4.0083 O   0  0  0  0  0  0  0  0  0  0  0  0
   -3.7174   27.9594    6.4063 C   0  0  0  0  0  0  0  0  0  0  0  0
   -2.2910   28.5262    6.3039 C   0  0  0  0  0  0  0  0  0  0  0  0
   -2.0878   29.8384    6.8376 O   0  0  0  0  0  0  0  0  0  0  0  0
   -5.6872   27.1336    4.3344 C   0  0  0  0  0  0  0  0  0  0  0  0
   -5.3459   26.7259    3.0440 C   0  0  0  0  0  0  0  0  0  0  0  0
   -5.5461   25.3966    2.6589 C   0  0  0  0  0  0  0  0  0  0  0  0
   -6.1016   24.4667    3.5517 C   0  0  0  0  0  0  0  0  0  0  0  0
   -6.4661   24.8993    4.8366 C   0  0  0  0  0  0  0  0  0  0  0  0
   -6.2672   26.2277    5.2267 C   0  0  0  0  0  0  0  0  0  0  0  0
   -6.3063   23.0885    3.1341 C   0  0  0  0  0  0  0  0  0  0  0  0
   -5.3131   22.2126    2.7465 C   0  0  0  0  0  0  0  0  0  0  0  0
   -5.9343   21.0400    2.4243 N   0  0  0  0  0  0  0  0  0  0  0  0
   -7.2677   21.0857    2.5645 N   0  0  0  0  0  0  0  0  0  0  0  0
   -7.4934   22.3286    2.9979 C   0  0  0  0  0  0  0  0  0  0  0  0
   -5.5144   20.1751    2.0991 H   0  0  0  0  0  0  0  0  0  0  0  0
   -0.5802   30.7136    9.1284 C   0  0  0  0  0  0  0  0  0  0  0  0
   -2.0196   31.1912    8.8612 C   0  0  0  0  0  0  0  0  0  0  0  0
   -1.9444   32.5029    8.0470 C   0  0  0  0  0  0  0  0  0  0  0  0
   -2.7097   31.5136   10.2011 C   0  0  0  0  0  0  0  0  0  0  0  0
 22 23  1  0  0  0
 23 24  1  0  0  0
 23 25  1  0  0  0
 23  1  1  0  0  0
  1  2  1  0  0  0
  2  3  1  0  0  0
  3  4  1  0  0  0
  4  5  1  0  0  0
  5  6  2  0  0  0
  5 10  1  0  0  0
 10 11  1  0  0  0
 11 12  2  0  0  0
 12 13  1  0  0  0
 13 16  1  0  0  0
 16 17  2  0  0  0
 17 18  1  0  0  0
 18 19  1  0  0  0
 19 20  2  0  0  0
 13 14  2  0  0  0
 14 15  1  0  0  0
  4  7  1  0  0  0
  7  8  1  0  0  0
  8  9  1  0  0  0
  9  1  1  0  0  0
 15 10  2  0  0  0
 20 16  1  0  0  0
 18 21  1  0  0  0
M  END
> <minimizedAffinity>
-9.27500

$$$$
OCNT-2314025


 29 32  0  0  0  0  0  0  0  0999 V2000
   -5.5626   29.6191    6.3688 N   0  0  0  0  0  0  0  0  0  0  0  0
   -6.0065   28.2431    6.6562 C   0  0  0  0  0  0  0  0  0  0  0  0
   -6.9052   27.6887    5.5575 C   0  0  0  0  0  0  0  0  0  0  0  0
   -6.2469   27.7493    4.1733 C   0  0  0  0  0  0  0  0  0  0  0  0
   -5.2916   28.9372    4.0112 C   0  0  0  0  0  0  0  0  0  0  0  0
   -5.6513   30.0653    4.9657 C   0  0  0  0  0  0  0  0  0  0  0  0
   -5.7960   31.4275    8.7021 C   0  0  0  0  0  0  0  0  0  0  0  0
   -4.5735   30.9117    8.1318 N   0  0  0  0  0  0  0  0  0  0  0  0
   -3.3047   31.1781    8.5988 C   0  0  0  0  0  0  0  0  0  0  0  0
   -2.8068   32.0231    9.6070 C   0  0  0  0  0  0  0  0  0  0  0  0
   -1.4165   32.0400    9.8035 C   0  0  0  0  0  0  0  0  0  0  0  0
   -0.5658   31.2403    9.0359 C   0  0  0  0  0  0  0  0  0  0  0  0
   -1.0887   30.4023    8.0446 C   0  0  0  0  0  0  0  0  0  0  0  0
   -0.2463   29.6501    7.3175 F   0  0  0  0  0  0  0  0  0  0  0  0
   -2.4781   30.3712    7.8160 C   0  0  0  0  0  0  0  0  0  0  0  0
   -3.2212   29.6538    6.9031 N   0  0  0  0  0  0  0  0  0  0  0  0
   -4.4702   30.0323    7.0731 C   0  0  0  0  0  0  0  0  0  0  0  0
   -5.5597   26.4348    3.8086 C   0  0  0  0  0  0  0  0  0  0  0  0
   -5.7185   25.4267    4.4963 O   0  0  0  0  0  0  0  0  0  0  0  0
   -4.7646   26.4645    2.6866 N   0  0  0  0  0  0  0  0  0  0  0  0
   -4.8437   27.2465    2.0508 H   0  0  0  0  0  0  0  0  0  0  0  0
   -4.2102   25.2515    2.1227 C   0  0  0  0  0  0  0  0  0  0  0  0
   -5.2660   24.5029    1.3420 C   0  0  0  0  0  0  0  0  0  0  0  0
   -5.5055   23.1436    1.6072 C   0  0  0  0  0  0  0  0  0  0  0  0
   -6.5011   22.4543    0.9157 C   0  0  0  0  0  0  0  0  0  0  0  0
   -7.2628   23.1260   -0.0414 C   0  0  0  0  0  0  0  0  0  0  0  0
   -8.2271   22.4699   -0.7006 F   0  0  0  0  0  0  0  0  0  0  0  0
   -7.0440   24.4720   -0.3165 C   0  0  0  0  0  0  0  0  0  0  0  0
   -6.0517   25.1639    0.3796 C   0  0  0  0  0  0  0  0  0  0  0  0
  7  8  1  0  0  0
  8  9  1  0  0  0
  9 10  2  0  0  0
 10 11  1  0  0  0
 11 12  2  0  0  0
 12 13  1  0  0  0
 13 14  1  0  0  0
 13 15  2  0  0  0
 15 16  1  0  0  0
 16 17  2  0  0  0
 17  1  1  0  0  0
  1  2  1  0  0  0
  2  3  1  0  0  0
  3  4  1  0  0  0
  4 18  1  0  0  0
 18 19  2  0  0  0
 18 20  1  0  0  0
 20 22  1  0  0  0
 22 23  1  0  0  0
 23 24  1  0  0  0
 24 25  2  0  0  0
 25 26  1  0  0  0
 26 27  1  0  0  0
 26 28  2  0  0  0
 28 29  1  0  0  0
  4  5  1  0  0  0
  5  6  1  0  0  0
 17  8  1  0  0  0
  6  1  1  0  0  0
 15  9  1  0  0  0
 29 23  2  0  0  0
 20 21  1  0  0  0
M  END
> <minimizedAffinity>
-10.13204

$$$$
OCNT-2314028


 31 35  0  0  0  0  0  0  0  0999 V2000
    0.7190   28.1349    5.0597 O   0  0  0  0  0  0  0  0  0  0  0  0
   -0.3145   28.0817    5.7212 C   0  0  0  0  0  0  0  0  0  0  0  0
   -1.3218   27.1408    5.5151 N   0  0  0  0  0  0  0  0  0  0  0  0
   -0.9964   26.0294    4.6278 C   0  0  0  0  0  0  0  0  0  0  0  0
   -2.2092   25.2866    4.1590 C   0  0  0  0  0  0  0  0  0  0  0  0
   -3.4716   25.5548    4.5342 C   0  0  0  0  0  0  0  0  0  0  0  0
   -3.7569   26.6560    5.5195 C   0  0  0  0  0  0  0  0  0  0  0  0
   -2.5193   27.0023    6.3488 C   0  0  0  0  0  0  0  0  0  0  0  0
   -4.6172   24.8385    4.0665 C   0  0  0  0  0  0  0  0  0  0  0  0
   -5.4355   24.0723    4.8686 C   0  0  0  0  0  0  0  0  0  0  0  0
   -6.4317   23.5535    4.0850 N   0  0  0  0  0  0  0  0  0  0  0  0
   -6.2715   23.9593    2.7796 C   0  0  0  0  0  0  0  0  0  0  0  0
   -7.0405   23.6698    1.6459 C   0  0  0  0  0  0  0  0  0  0  0  0
   -6.6273   24.2256    0.4363 C   0  0  0  0  0  0  0  0  0  0  0  0
   -7.3370   23.9692   -0.6713 F   0  0  0  0  0  0  0  0  0  0  0  0
   -5.5011   25.0318    0.3454 C   0  0  0  0  0  0  0  0  0  0  0  0
   -4.7432   25.3116    1.4882 C   0  0  0  0  0  0  0  0  0  0  0  0
   -5.1341   24.7719    2.7347 C   0  0  0  0  0  0  0  0  0  0  0  0
   -7.1797   22.9578    4.4131 H   0  0  0  0  0  0  0  0  0  0  0  0
   -0.4750   29.0784    6.7855 C   0  0  0  0  0  0  0  0  0  0  0  0
    0.1455   28.9360    8.0208 C   0  0  0  0  0  0  0  0  0  0  0  0
   -0.0427   29.9316    8.9785 C   0  0  0  0  0  0  0  0  0  0  0  0
   -0.8273   31.0474    8.6762 C   0  0  0  0  0  0  0  0  0  0  0  0
   -1.4232   31.1870    7.4726 N   0  0  0  0  0  0  0  0  0  0  0  0
   -1.2230   30.2162    6.5464 C   0  0  0  0  0  0  0  0  0  0  0  0
   -1.0186   32.0052    9.6851 N   0  0  0  0  0  0  0  0  0  0  0  0
   -0.7219   32.9129    9.3418 H   0  0  0  0  0  0  0  0  0  0  0  0
   -2.3725   32.0507   10.2208 C   0  0  0  0  0  0  0  0  0  0  0  0
   -3.2709   32.6404    9.1705 C   0  0  0  0  0  0  0  0  0  0  0  0
   -4.7137   32.2128    9.0659 C   0  0  0  0  0  0  0  0  0  0  0  0
   -4.3746   33.5947    9.5530 C   0  0  0  0  0  0  0  0  0  0  0  0
  1  2  2  0  0  0
  2 20  1  0  0  0
 20 21  2  0  0  0
 21 22  1  0  0  0
 22 23  2  0  0  0
 23 26  1  0  0  0
 26 28  1  0  0  0
 28 29  1  0  0  0
 29 30  1  0  0  0
 30 31  1  0  0  0
 23 24  1  0  0  0
 24 25  2  0  0  0
  2  3  1  0  0  0
  3  4  1  0  0  0
  4  5  1  0  0  0
  5  6  2  0  0  0
  6  9  1  0  0  0
  9 10  2  0  0  0
 10 11  1  0  0  0
 11 12  1  0  0  0
 12 13  2  0  0  0
 13 14  1  0  0  0
 14 15  1  0  0  0
 14 16  2  0  0  0
 16 17  1  0  0  0
 17 18  2  0  0  0
  6  7  1  0  0  0
  7  8  1  0  0  0
 25 20  1  0  0  0
  8  3  1  0  0  0
 31 29  1  0  0  0
 18  9  1  0  0  0
 18 12  1  0  0  0
 26 27  1  0  0  0
 11 19  1  0  0  0
M  END
> <minimizedAffinity>
-10.12330

$$$$
OCNT-2314054


 26 29  0  0  0  0  0  0  0  0999 V2000
   -4.9891   26.8424    4.7543 C   0  0  0  0  0  0  0  0  0  0  0  0
   -5.7420   26.2800    3.7888 C   0  0  0  0  0  0  0  0  0  0  0  0
   -5.0479   25.4355    2.7654 C   0  0  0  0  0  0  0  0  0  0  0  0
   -3.7735   25.1759    2.7612 N   0  0  0  0  0  0  0  0  0  0  0  0
   -3.0274   25.7446    3.7493 C   0  0  0  0  0  0  0  0  0  0  0  0
   -1.7322   25.6418    3.9571 N   0  0  0  0  0  0  0  0  0  0  0  0
   -1.5271   26.4022    5.0609 C   0  0  0  0  0  0  0  0  0  0  0  0
   -2.6035   26.9888    5.5783 N   0  0  0  0  0  0  0  0  0  0  0  0
   -3.5947   26.5703    4.7353 N   0  0  0  0  0  0  0  0  0  0  0  0
   -5.9060   24.8414    1.6988 C   0  0  0  0  0  0  0  0  0  0  0  0
   -6.5628   23.6326    1.9643 C   0  0  0  0  0  0  0  0  0  0  0  0
   -7.3723   23.0434    0.9916 C   0  0  0  0  0  0  0  0  0  0  0  0
   -7.5215   23.6524   -0.2532 C   0  0  0  0  0  0  0  0  0  0  0  0
   -6.8560   24.8461   -0.5309 C   0  0  0  0  0  0  0  0  0  0  0  0
   -6.0451   25.4399    0.4399 C   0  0  0  0  0  0  0  0  0  0  0  0
   -5.5766   27.6351    5.7381 N   0  0  0  0  0  0  0  0  0  0  0  0
   -6.1432   27.1547    6.4390 H   0  0  0  0  0  0  0  0  0  0  0  0
   -7.2047   29.3737    6.3289 C   0  0  0  0  0  0  0  0  0  0  0  0
   -5.8231   29.0768    5.7478 C   0  0  0  0  0  0  0  0  0  0  0  0
   -4.7590   29.7437    6.6261 C   0  0  0  0  0  0  0  0  0  0  0  0
   -4.4186   29.1851    7.8595 C   0  0  0  0  0  0  0  0  0  0  0  0
   -3.4366   29.8020    8.6344 C   0  0  0  0  0  0  0  0  0  0  0  0
   -2.8201   30.9526    8.1597 C   0  0  0  0  0  0  0  0  0  0  0  0
   -1.6073   31.7398    9.0834 Cl  0  0  0  0  0  0  0  0  0  0  0  0
   -3.2073   31.4458    6.9241 C   0  0  0  0  0  0  0  0  0  0  0  0
   -4.1573   30.8718    6.1449 N   0  0  0  0  0  0  0  0  0  0  0  0
 18 19  1  0  0  0
 19 16  1  0  0  0
 16  1  1  0  0  0
  1  2  2  0  0  0
  2  3  1  0  0  0
  3 10  1  0  0  0
 10 11  2  0  0  0
 11 12  1  0  0  0
 12 13  2  0  0  0
 13 14  1  0  0  0
 14 15  2  0  0  0
  3  4  2  0  0  0
  4  5  1  0  0  0
  5  6  2  0  0  0
  6  7  1  0  0  0
  7  8  2  0  0  0
  8  9  1  0  0  0
 19 20  1  0  0  0
 20 21  2  0  0  0
 21 22  1  0  0  0
 22 23  2  0  0  0
 23 24  1  0  0  0
 23 25  1  0  0  0
 25 26  2  0  0  0
  9  1  1  0  0  0
 26 20  1  0  0  0
 15 10  1  0  0  0
  9  5  1  0  0  0
 16 17  1  0  0  0
M  END
> <minimizedAffinity>
-9.84193

$$$$
OCNT-2314062


 29 32  0  0  0  0  0  0  0  0999 V2000
   -1.8002   27.1827    5.7403 C   0  0  0  0  0  0  0  0  0  0  0  0
   -2.9842   27.0187    5.1951 N   0  0  0  0  0  0  0  0  0  0  0  0
   -2.7641   26.0046    4.2852 C   0  0  0  0  0  0  0  0  0  0  0  0
   -1.4943   25.5644    4.2632 N   0  0  0  0  0  0  0  0  0  0  0  0
   -0.8567   26.3414    5.2264 O   0  0  0  0  0  0  0  0  0  0  0  0
   -3.8267   25.4782    3.4329 C   0  0  0  0  0  0  0  0  0  0  0  0
   -4.7219   26.3401    2.7827 C   0  0  0  0  0  0  0  0  0  0  0  0
   -5.7476   25.8542    1.9615 C   0  0  0  0  0  0  0  0  0  0  0  0
   -5.8508   24.4683    1.8097 C   0  0  0  0  0  0  0  0  0  0  0  0
   -6.7435   23.7180    1.0772 N   0  0  0  0  0  0  0  0  0  0  0  0
   -6.4693   22.3837    1.2210 C   0  0  0  0  0  0  0  0  0  0  0  0
   -5.3834   22.2649    2.0579 C   0  0  0  0  0  0  0  0  0  0  0  0
   -4.9830   23.5758    2.4370 C   0  0  0  0  0  0  0  0  0  0  0  0
   -3.9586   24.0882    3.2583 C   0  0  0  0  0  0  0  0  0  0  0  0
   -7.4907   24.1028    0.5160 H   0  0  0  0  0  0  0  0  0  0  0  0
   -1.8121   29.8454    8.4222 C   0  0  0  0  0  0  0  0  0  0  0  0
   -0.4587   29.9015    8.7621 C   0  0  0  0  0  0  0  0  0  0  0  0
    0.4409   29.0573    8.1167 C   0  0  0  0  0  0  0  0  0  0  0  0
   -0.0132   28.1718    7.1343 C   0  0  0  0  0  0  0  0  0  0  0  0
   -1.3708   28.1177    6.7742 C   0  0  0  0  0  0  0  0  0  0  0  0
   -2.2708   28.9713    7.4278 C   0  0  0  0  0  0  0  0  0  0  0  0
   -2.9745   30.9221    9.2276 S   0  0  0  0  0  0  0  0  0  0  0  0
   -2.2455   31.6757   10.2223 O   0  0  0  0  0  0  0  0  0  0  0  0
   -4.1479   30.1463    9.5594 O   0  0  0  0  0  0  0  0  0  0  0  0
   -3.3827   31.9901    8.0148 N   0  0  0  0  0  0  0  0  0  0  0  0
   -2.8495   31.9044    7.1531 H   0  0  0  0  0  0  0  0  0  0  0  0
   -4.7330   32.5206    7.9563 C   0  0  0  0  0  0  0  0  0  0  0  0
   -4.7585   34.9544    9.0521 C   0  0  0  0  0  0  0  0  0  0  0  0
   -4.7462   33.8597    8.5573 C   0  0  0  0  0  0  0  0  0  0  0  0
 28 29  3  0  0  0
 29 27  1  0  0  0
 27 25  1  0  0  0
 25 22  1  0  0  0
 22 23  2  0  0  0
 22 24  2  0  0  0
 22 16  1  0  0  0
 16 17  2  0  0  0
 17 18  1  0  0  0
 18 19  2  0  0  0
 19 20  1  0  0  0
 20  1  1  0  0  0
  1  2  2  0  0  0
  2  3  1  0  0  0
  3  6  1  0  0  0
  6  7  2  0  0  0
  7  8  1  0  0  0
  8  9  2  0  0  0
  9 10  1  0  0  0
 10 11  1  0  0  0
 11 12  2  0  0  0
 12 13  1  0  0  0
 13 14  2  0  0  0
  3  4  2  0  0  0
  4  5  1  0  0  0
 20 21  2  0  0  0
 21 16  1  0  0  0
  5  1  1  0  0  0
 14  6  1  0  0  0
 13  9  1  0  0  0
 25 26  1  0  0  0
 10 15  1  0  0  0
M  END
> <minimizedAffinity>
-9.69646

$$$$
OCNT-2314087


 33 38  0  0  0  0  0  0  0  0999 V2000
   -1.4699   27.5083    6.0770 C   0  0  0  0  0  0  0  0  0  0  0  0
   -0.4641   26.7829    5.5598 N   0  0  0  0  0  0  0  0  0  0  0  0
   -1.0988   25.9117    4.6789 O   0  0  0  0  0  0  0  0  0  0  0  0
   -2.4297   26.1909    4.7496 C   0  0  0  0  0  0  0  0  0  0  0  0
   -2.7121   27.1524    5.5954 N   0  0  0  0  0  0  0  0  0  0  0  0
   -2.1580   30.5053    8.2866 C   0  0  0  0  0  0  0  0  0  0  0  0
   -0.9257   30.6055    8.9491 C   0  0  0  0  0  0  0  0  0  0  0  0
    0.1119   29.7123    8.6792 C   0  0  0  0  0  0  0  0  0  0  0  0
   -0.0683   28.7004    7.7385 C   0  0  0  0  0  0  0  0  0  0  0  0
   -1.2871   28.5715    7.0599 C   0  0  0  0  0  0  0  0  0  0  0  0
   -2.3247   29.4796    7.3424 C   0  0  0  0  0  0  0  0  0  0  0  0
   -4.7444   34.7552    8.5934 C   0  0  0  0  0  0  0  0  0  0  0  0
   -4.3769   33.3356    8.7488 C   0  0  0  0  0  0  0  0  0  0  0  0
   -5.0671   32.3862    9.3376 N   0  0  0  0  0  0  0  0  0  0  0  0
   -4.3456   31.2193    9.2405 N   0  0  0  0  0  0  0  0  0  0  0  0
   -3.2174   31.4675    8.5995 C   0  0  0  0  0  0  0  0  0  0  0  0
   -3.2099   32.8019    8.2746 N   0  0  0  0  0  0  0  0  0  0  0  0
   -2.4874   33.2978    7.7784 H   0  0  0  0  0  0  0  0  0  0  0  0
   -3.3280   25.3732    3.9117 C   0  0  0  0  0  0  0  0  0  0  0  0
   -4.0567   26.1742    2.8475 C   0  0  0  0  0  0  0  0  0  0  0  0
   -5.3154   25.3716    2.6241 C   0  0  0  0  0  0  0  0  0  0  0  0
   -6.0033   25.5006    1.6249 O   0  0  0  0  0  0  0  0  0  0  0  0
   -5.5164   24.5582    3.7495 N   0  0  0  0  0  0  0  0  0  0  0  0
   -4.4594   24.7582    4.7149 C   0  0  0  0  0  0  0  0  0  0  0  0
   -6.6470   23.7324    4.0083 C   0  0  0  0  0  0  0  0  0  0  0  0
   -6.9521   22.6484    3.1503 C   0  0  0  0  0  0  0  0  0  0  0  0
   -8.0534   21.8116    3.3738 C   0  0  0  0  0  0  0  0  0  0  0  0
   -8.8628   22.0691    4.4607 C   0  0  0  0  0  0  0  0  0  0  0  0
  -10.0587   21.3045    4.9308 C   0  0  0  0  0  0  0  0  0  0  0  0
  -10.7030   22.3196    5.8864 C   0  0  0  0  0  0  0  0  0  0  0  0
   -9.5613   23.1766    6.4508 C   0  0  0  0  0  0  0  0  0  0  0  0
   -8.5802   23.1296    5.3207 C   0  0  0  0  0  0  0  0  0  0  0  0
   -7.4843   23.9567    5.1115 C   0  0  0  0  0  0  0  0  0  0  0  0
 12 13  1  0  0  0
 13 14  2  0  0  0
 14 15  1  0  0  0
 15 16  2  0  0  0
 16  6  1  0  0  0
  6  7  2  0  0  0
  7  8  1  0  0  0
  8  9  2  0  0  0
  9 10  1  0  0  0
 10  1  1  0  0  0
  1  2  2  0  0  0
  2  3  1  0  0  0
  3  4  1  0  0  0
  4 19  1  0  0  0
 19 20  1  0  0  0
 20 21  1  0  0  0
 21 22  2  0  0  0
 21 23  1  0  0  0
 23 25  1  0  0  0
 25 26  1  0  0  0
 26 27  2  0  0  0
 27 28  1  0  0  0
 28 29  1  0  0  0
 29 30  1  0  0  0
 30 31  1  0  0  0
 31 32  1  0  0  0
 32 33  1  0  0  0
 23 24  1  0  0  0
  4  5  2  0  0  0
 10 11  2  0  0  0
 16 17  1  0  0  0
 17 13  1  0  0  0
 11  6  1  0  0  0
  5  1  1  0  0  0
 24 19  1  0  0  0
 33 25  2  0  0  0
 32 28  2  0  0  0
 17 18  1  0  0  0
M  END
> <minimizedAffinity>
-11.88411

$$$$
OCNT-2314112


 27 29  0  0  0  0  0  0  0  0999 V2000
   -2.1767   25.7593    4.1252 C   0  0  0  0  0  0  0  0  0  0  0  0
   -2.0959   26.7477    5.2895 C   0  0  0  0  0  0  0  0  0  0  0  0
   -3.1947   27.3145    5.7128 N   0  0  0  0  0  0  0  0  0  0  0  0
   -3.0826   28.1777    6.7683 C   0  0  0  0  0  0  0  0  0  0  0  0
   -4.0008   28.9307    7.4653 C   0  0  0  0  0  0  0  0  0  0  0  0
   -3.2621   29.6118    8.4456 C   0  0  0  0  0  0  0  0  0  0  0  0
   -1.9569   29.3310    8.3974 N   0  0  0  0  0  0  0  0  0  0  0  0
   -1.8519   28.4463    7.3666 N   0  0  0  0  0  0  0  0  0  0  0  0
   -0.6777   27.8426    6.9007 C   0  0  0  0  0  0  0  0  0  0  0  0
    0.5277   28.1399    7.5157 O   0  0  0  0  0  0  0  0  0  0  0  0
   -0.7325   26.9912    5.8695 C   0  0  0  0  0  0  0  0  0  0  0  0
    0.3101   28.7727    8.2344 H   0  0  0  0  0  0  0  0  0  0  0  0
   -5.4018   28.9997    7.2335 C   0  0  0  0  0  0  0  0  0  0  0  0
   -6.5396   29.1050    7.0291 N   0  0  0  0  0  0  0  0  0  0  0  0
   -3.5666   25.2956    3.9918 N   0  0  0  0  0  0  0  0  0  0  0  0
   -3.5694   24.2793    3.9190 H   0  0  0  0  0  0  0  0  0  0  0  0
   -4.2535   25.8832    2.8110 C   0  0  0  0  0  0  0  0  0  0  0  0
   -6.1889   25.6776    4.5121 C   0  0  0  0  0  0  0  0  0  0  0  0
   -5.7086   26.2992    3.1977 C   0  0  0  0  0  0  0  0  0  0  0  0
   -5.9346   27.8145    3.2253 C   0  0  0  0  0  0  0  0  0  0  0  0
   -4.1520   24.8459    1.6529 C   0  0  0  0  0  0  0  0  0  0  0  0
   -5.4457   24.4543    0.9786 C   0  0  0  0  0  0  0  0  0  0  0  0
   -6.0306   25.2765    0.0050 C   0  0  0  0  0  0  0  0  0  0  0  0
   -7.2170   24.8966   -0.6251 C   0  0  0  0  0  0  0  0  0  0  0  0
   -7.8257   23.6870   -0.2977 C   0  0  0  0  0  0  0  0  0  0  0  0
   -7.2458   22.8533    0.6559 C   0  0  0  0  0  0  0  0  0  0  0  0
   -6.0596   23.2317    1.2869 C   0  0  0  0  0  0  0  0  0  0  0  0
 18 19  1  0  0  0
 19 20  1  0  0  0
 19 17  1  0  0  0
 17 21  1  0  0  0
 21 22  1  0  0  0
 22 23  2  0  0  0
 23 24  1  0  0  0
 24 25  2  0  0  0
 25 26  1  0  0  0
 26 27  2  0  0  0
 17 15  1  0  0  0
 15  1  1  0  0  0
  1  2  1  0  0  0
  2  3  2  0  0  0
  3  4  1  0  0  0
  4  5  2  0  0  0
  5 13  1  0  0  0
 13 14  3  0  0  0
  5  6  1  0  0  0
  6  7  2  0  0  0
  7  8  1  0  0  0
  8  9  1  0  0  0
  9 10  1  0  0  0
  9 11  2  0  0  0
 27 22  1  0  0  0
 11  2  1  0  0  0
  8  4  1  0  0  0
 15 16  1  0  0  0
 10 12  1  0  0  0
M  END
> <minimizedAffinity>
-9.21486

$$$$
OCNT-2314118


 28 30  0  0  0  0  0  0  0  0999 V2000
   -5.3597   27.5165    3.8234 C   0  0  0  0  0  0  0  0  0  0  0  0
   -6.1511   26.9367    5.0027 C   0  0  0  0  0  0  0  0  0  0  0  0
   -6.3249   27.9630    6.1193 C   0  0  0  0  0  0  0  0  0  0  0  0
   -6.9901   29.2460    5.6108 C   0  0  0  0  0  0  0  0  0  0  0  0
   -6.2058   29.8343    4.4305 C   0  0  0  0  0  0  0  0  0  0  0  0
   -6.0041   28.8110    3.3152 C   0  0  0  0  0  0  0  0  0  0  0  0
   -3.0087   26.1723    2.9806 O   0  0  0  0  0  0  0  0  0  0  0  0
   -4.0733   25.9137    2.4342 C   0  0  0  0  0  0  0  0  0  0  0  0
   -5.2636   26.5496    2.7387 N   0  0  0  0  0  0  0  0  0  0  0  0
   -6.1228   26.1394    2.3895 H   0  0  0  0  0  0  0  0  0  0  0  0
   -4.2383   24.8736    1.3383 C   0  0  0  0  0  0  0  0  0  0  0  0
   -5.6771   24.3643    1.1664 C   0  0  0  0  0  0  0  0  0  0  0  0
   -5.7504   22.8277    1.1786 C   0  0  0  0  0  0  0  0  0  0  0  0
   -7.1775   22.3330    0.9575 C   0  0  0  0  0  0  0  0  0  0  0  0
   -7.7687   22.8849   -0.3353 C   0  0  0  0  0  0  0  0  0  0  0  0
   -7.6873   24.4054   -0.3888 C   0  0  0  0  0  0  0  0  0  0  0  0
   -6.2672   24.9074   -0.1495 C   0  0  0  0  0  0  0  0  0  0  0  0
   -7.1112   30.2785    6.7268 C   0  0  0  0  0  0  0  0  0  0  0  0
   -8.0143   31.1063    6.7888 O   0  0  0  0  0  0  0  0  0  0  0  0
   -6.1279   30.1766    7.6794 N   0  0  0  0  0  0  0  0  0  0  0  0
   -5.2571   29.7181    7.4444 H   0  0  0  0  0  0  0  0  0  0  0  0
   -6.0379   31.1615    8.7311 C   0  0  0  0  0  0  0  0  0  0  0  0
   -4.5992   31.4187    9.0040 C   0  0  0  0  0  0  0  0  0  0  0  0
   -3.9351   32.6215    9.0932 C   0  0  0  0  0  0  0  0  0  0  0  0
   -2.6286   32.2996    9.3351 N   0  0  0  0  0  0  0  0  0  0  0  0
   -2.5485   30.9398    9.4145 C   0  0  0  0  0  0  0  0  0  0  0  0
   -3.7219   30.3772    9.2362 N   0  0  0  0  0  0  0  0  0  0  0  0
   -1.8612   32.9523    9.4425 H   0  0  0  0  0  0  0  0  0  0  0  0
  7  8  2  0  0  0
  8 11  1  0  0  0
 11 12  1  0  0  0
 12 13  1  0  0  0
 13 14  1  0  0  0
 14 15  1  0  0  0
 15 16  1  0  0  0
 16 17  1  0  0  0
  8  9  1  0  0  0
  9  1  1  0  0  0
  1  2  1  0  0  0
  2  3  1  0  0  0
  3  4  1  0  0  0
  4 18  1  0  0  0
 18 19  2  0  0  0
 18 20  1  0  0  0
 20 22  1  0  0  0
 22 23  1  0  0  0
 23 24  2  0  0  0
 24 25  1  0  0  0
 25 26  1  0  0  0
 26 27  2  0  0  0
  4  5  1  0  0  0
  5  6  1  0  0  0
 17 12  1  0  0  0
  6  1  1  0  0  0
 27 23  1  0  0  0
  9 10  1  0  0  0
 20 21  1  0  0  0
 25 28  1  0  0  0
M  END
> <minimizedAffinity>
-9.63832

$$$$
OCNT-2314120


 23 26  0  0  0  0  0  0  0  0999 V2000
   -2.6855   27.3963    7.2726 N   0  0  0  0  0  0  0  0  0  0  0  0
   -2.7084   26.6652    7.9754 H   0  0  0  0  0  0  0  0  0  0  0  0
   -4.6584   29.2754    8.2389 C   0  0  0  0  0  0  0  0  0  0  0  0
   -3.4043   29.9733    8.7000 C   0  0  0  0  0  0  0  0  0  0  0  0
   -3.5726   31.1412    9.4625 C   0  0  0  0  0  0  0  0  0  0  0  0
   -2.4713   31.8678    9.8837 C   0  0  0  0  0  0  0  0  0  0  0  0
   -1.1946   31.4356    9.5393 C   0  0  0  0  0  0  0  0  0  0  0  0
   -0.9794   30.2839    8.7974 C   0  0  0  0  0  0  0  0  0  0  0  0
    0.2934   29.9869    8.5289 N   0  0  0  0  0  0  0  0  0  0  0  0
    0.5169   28.8845    7.8150 C   0  0  0  0  0  0  0  0  0  0  0  0
   -0.4114   28.0434    7.3679 N   0  0  0  0  0  0  0  0  0  0  0  0
   -1.6949   28.3374    7.6564 C   0  0  0  0  0  0  0  0  0  0  0  0
   -2.0762   29.5063    8.3770 C   0  0  0  0  0  0  0  0  0  0  0  0
   -2.9493   26.8671    5.9857 C   0  0  0  0  0  0  0  0  0  0  0  0
   -1.9495   26.3010    5.1874 C   0  0  0  0  0  0  0  0  0  0  0  0
   -2.2013   25.8463    3.8855 C   0  0  0  0  0  0  0  0  0  0  0  0
   -3.4961   26.0041    3.3860 C   0  0  0  0  0  0  0  0  0  0  0  0
   -4.0278   25.6610    2.1637 N   0  0  0  0  0  0  0  0  0  0  0  0
   -5.3483   26.0213    2.1048 C   0  0  0  0  0  0  0  0  0  0  0  0
   -5.6788   26.6053    3.3065 C   0  0  0  0  0  0  0  0  0  0  0  0
   -4.5165   26.5964    4.1267 C   0  0  0  0  0  0  0  0  0  0  0  0
   -4.2322   27.0449    5.4331 C   0  0  0  0  0  0  0  0  0  0  0  0
   -3.5109   25.2115    1.4208 H   0  0  0  0  0  0  0  0  0  0  0  0
  3  4  1  0  0  0
  4  5  2  0  0  0
  5  6  1  0  0  0
  6  7  2  0  0  0
  7  8  1  0  0  0
  8  9  2  0  0  0
  9 10  1  0  0  0
 10 11  2  0  0  0
 11 12  1  0  0  0
 12  1  1  0  0  0
  1 14  1  0  0  0
 14 15  2  0  0  0
 15 16  1  0  0  0
 16 17  2  0  0  0
 17 18  1  0  0  0
 18 19  1  0  0  0
 19 20  2  0  0  0
 20 21  1  0  0  0
 21 22  2  0  0  0
 12 13  2  0  0  0
 13  4  1  0  0  0
 13  8  1  0  0  0
 22 14  1  0  0  0
 21 17  1  0  0  0
  1  2  1  0  0  0
 18 23  1  0  0  0
M  END
> <minimizedAffinity>
-9.26517

$$$$
OCNT-2314135


 24 26  0  0  0  0  0  0  0  0999 V2000
   -3.5754   26.7464    4.9536 C   0  0  0  0  0  0  0  0  0  0  0  0
   -2.6207   26.2273    4.0698 C   0  0  0  0  0  0  0  0  0  0  0  0
   -2.9419   25.1786    3.2021 C   0  0  0  0  0  0  0  0  0  0  0  0
   -4.2281   24.6271    3.2000 C   0  0  0  0  0  0  0  0  0  0  0  0
   -5.1818   25.1484    4.0822 C   0  0  0  0  0  0  0  0  0  0  0  0
   -4.8576   26.1979    4.9510 C   0  0  0  0  0  0  0  0  0  0  0  0
   -2.4126   27.7248    6.9524 C   0  0  0  0  0  0  0  0  0  0  0  0
   -1.9606   26.6917    7.4328 O   0  0  0  0  0  0  0  0  0  0  0  0
   -3.1648   27.8035    5.7931 N   0  0  0  0  0  0  0  0  0  0  0  0
   -3.4501   28.7247    5.5011 H   0  0  0  0  0  0  0  0  0  0  0  0
    0.2705   29.5142    6.7865 C   0  0  0  0  0  0  0  0  0  0  0  0
   -0.9843   29.8077    7.5289 C   0  0  0  0  0  0  0  0  0  0  0  0
   -1.0895   30.9419    8.2342 N   0  0  0  0  0  0  0  0  0  0  0  0
   -2.3165   30.8829    8.7662 N   0  0  0  0  0  0  0  0  0  0  0  0
   -2.7803   31.9689    9.5943 C   0  0  0  0  0  0  0  0  0  0  0  0
   -3.0048   29.7543    8.4277 C   0  0  0  0  0  0  0  0  0  0  0  0
   -2.1708   29.0151    7.6031 C   0  0  0  0  0  0  0  0  0  0  0  0
   -4.5784   23.4880    2.2704 C   0  0  0  0  0  0  0  0  0  0  0  0
   -5.6278   23.8362    1.2415 C   0  0  0  0  0  0  0  0  0  0  0  0
   -6.6811   22.9593    0.9680 C   0  0  0  0  0  0  0  0  0  0  0  0
   -7.6146   23.3216    0.0085 C   0  0  0  0  0  0  0  0  0  0  0  0
   -7.5725   24.4793   -0.6865 N   0  0  0  0  0  0  0  0  0  0  0  0
   -6.5479   25.3121   -0.4087 C   0  0  0  0  0  0  0  0  0  0  0  0
   -5.5649   25.0389    0.5289 C   0  0  0  0  0  0  0  0  0  0  0  0
 11 12  1  0  0  0
 12 13  2  0  0  0
 13 14  1  0  0  0
 14 15  1  0  0  0
 14 16  1  0  0  0
 16 17  2  0  0  0
 17  7  1  0  0  0
  7  8  2  0  0  0
  7  9  1  0  0  0
  9  1  1  0  0  0
  1  2  1  0  0  0
  2  3  2  0  0  0
  3  4  1  0  0  0
  4 18  1  0  0  0
 18 19  1  0  0  0
 19 20  2  0  0  0
 20 21  1  0  0  0
 21 22  2  0  0  0
 22 23  1  0  0  0
 23 24  2  0  0  0
  4  5  2  0  0  0
  5  6  1  0  0  0
 17 12  1  0  0  0
  6  1  2  0  0  0
 24 19  1  0  0  0
  9 10  1  0  0  0
M  END
> <minimizedAffinity>
-8.78465

$$$$
OCNT-2314136


 23 26  0  0  0  0  0  0  0  0999 V2000
   -4.5225   31.6897    8.4054 C   0  0  0  0  0  0  0  0  0  0  0  0
   -5.5583   31.7532    9.2097 N   0  0  0  0  0  0  0  0  0  0  0  0
   -6.6287   31.1878    8.5526 N   0  0  0  0  0  0  0  0  0  0  0  0
   -6.2151   30.7561    7.3819 C   0  0  0  0  0  0  0  0  0  0  0  0
   -4.8938   31.0804    7.2425 N   0  0  0  0  0  0  0  0  0  0  0  0
   -4.3330   30.9301    6.4198 H   0  0  0  0  0  0  0  0  0  0  0  0
   -0.3917   32.8029    9.3587 F   0  0  0  0  0  0  0  0  0  0  0  0
   -1.1107   31.6702    9.1769 C   0  0  0  0  0  0  0  0  0  0  0  0
   -0.2630   30.6341    9.3535 F   0  0  0  0  0  0  0  0  0  0  0  0
   -1.9645   31.6392    7.8887 C   0  0  0  0  0  0  0  0  0  0  0  0
   -3.1138   32.2387    8.7304 C   0  0  0  0  0  0  0  0  0  0  0  0
   -2.4381   31.6048    9.9662 C   0  0  0  0  0  0  0  0  0  0  0  0
   -6.9399   30.1962    6.3940 N   0  0  0  0  0  0  0  0  0  0  0  0
   -7.9492   30.2496    6.5110 H   0  0  0  0  0  0  0  0  0  0  0  0
   -6.5461   29.2651    5.4121 C   0  0  0  0  0  0  0  0  0  0  0  0
   -6.2389   29.6262    4.0803 C   0  0  0  0  0  0  0  0  0  0  0  0
   -5.9043   28.6622    3.1196 C   0  0  0  0  0  0  0  0  0  0  0  0
   -5.8891   27.3437    3.5128 C   0  0  0  0  0  0  0  0  0  0  0  0
   -5.5935   26.2788    2.7221 O   0  0  0  0  0  0  0  0  0  0  0  0
   -5.7298   25.1942    3.6647 C   0  0  0  0  0  0  0  0  0  0  0  0
   -6.1131   25.6302    4.9869 O   0  0  0  0  0  0  0  0  0  0  0  0
   -6.1835   26.9758    4.8023 C   0  0  0  0  0  0  0  0  0  0  0  0
   -6.5146   27.9055    5.7672 C   0  0  0  0  0  0  0  0  0  0  0  0
  7  8  1  0  0  0
  8  9  1  0  0  0
  8 10  1  0  0  0
 10 11  1  0  0  0
 11  1  1  0  0  0
  1  2  2  0  0  0
  2  3  1  0  0  0
  3  4  2  0  0  0
  4 13  1  0  0  0
 13 15  1  0  0  0
 15 16  1  0  0  0
 16 17  2  0  0  0
 17 18  1  0  0  0
 18 19  1  0  0  0
 19 20  1  0  0  0
 20 21  1  0  0  0
 21 22  1  0  0  0
 22 23  1  0  0  0
  4  5  1  0  0  0
 11 12  1  0  0  0
 12  8  1  0  0  0
  5  1  1  0  0  0
 23 15  2  0  0  0
 22 18  2  0  0  0
 13 14  1  0  0  0
  5  6  1  0  0  0
M  END
> <minimizedAffinity>
-9.09455

$$$$
OCNT-2314144


 27 30  0  0  0  0  0  0  0  0999 V2000
   -5.6150   29.4411    6.7136 C   0  0  0  0  0  0  0  0  0  0  0  0
   -5.1435   28.7432    5.7063 N   0  0  0  0  0  0  0  0  0  0  0  0
   -6.1252   27.7951    5.4944 C   0  0  0  0  0  0  0  0  0  0  0  0
   -7.1619   27.9005    6.3452 N   0  0  0  0  0  0  0  0  0  0  0  0
   -6.8264   28.9865    7.1482 O   0  0  0  0  0  0  0  0  0  0  0  0
   -6.0360   26.7811    4.4465 C   0  0  0  0  0  0  0  0  0  0  0  0
   -5.7655   27.1289    3.1247 C   0  0  0  0  0  0  0  0  0  0  0  0
   -5.6736   26.2206    2.1151 N   0  0  0  0  0  0  0  0  0  0  0  0
   -5.8598   24.9347    2.4814 C   0  0  0  0  0  0  0  0  0  0  0  0
   -6.1318   24.5750    3.7938 C   0  0  0  0  0  0  0  0  0  0  0  0
   -6.2258   25.4798    4.7999 N   0  0  0  0  0  0  0  0  0  0  0  0
   -5.7989   23.9308    1.5406 O   0  0  0  0  0  0  0  0  0  0  0  0
   -7.0818   23.3623    1.2430 C   0  0  0  0  0  0  0  0  0  0  0  0
   -7.3439   23.4793   -0.2480 C   0  0  0  0  0  0  0  0  0  0  0  0
   -8.3508   22.6425   -0.6065 F   0  0  0  0  0  0  0  0  0  0  0  0
   -7.7637   24.7365   -0.5470 F   0  0  0  0  0  0  0  0  0  0  0  0
   -4.1511   30.3425    8.6961 C   0  0  0  0  0  0  0  0  0  0  0  0
   -4.6284   31.7463    9.1690 C   0  0  0  0  0  0  0  0  0  0  0  0
   -5.7943   31.6097    8.1666 C   0  0  0  0  0  0  0  0  0  0  0  0
   -4.8883   30.6539    7.3559 C   0  0  0  0  0  0  0  0  0  0  0  0
    1.4952   29.2194    8.5461 F   0  0  0  0  0  0  0  0  0  0  0  0
    0.1812   29.4756    8.5765 C   0  0  0  0  0  0  0  0  0  0  0  0
   -0.2719   30.6793    9.0915 C   0  0  0  0  0  0  0  0  0  0  0  0
   -1.6447   30.9405    9.1208 C   0  0  0  0  0  0  0  0  0  0  0  0
   -2.5959   30.0148    8.6384 C   0  0  0  0  0  0  0  0  0  0  0  0
   -2.0845   28.8024    8.1276 C   0  0  0  0  0  0  0  0  0  0  0  0
   -0.7128   28.5326    8.0940 C   0  0  0  0  0  0  0  0  0  0  0  0
 21 22  1  0  0  0
 22 23  1  0  0  0
 23 24  2  0  0  0
 24 25  1  0  0  0
 25 17  1  0  0  0
 17 18  1  0  0  0
 18 19  1  0  0  0
 19 20  1  0  0  0
 20  1  1  0  0  0
  1  2  2  0  0  0
  2  3  1  0  0  0
  3  6  1  0  0  0
  6  7  1  0  0  0
  7  8  2  0  0  0
  8  9  1  0  0  0
  9 12  1  0  0  0
 12 13  1  0  0  0
 13 14  1  0  0  0
 14 15  1  0  0  0
 14 16  1  0  0  0
  9 10  2  0  0  0
 10 11  1  0  0  0
  3  4  2  0  0  0
  4  5  1  0  0  0
 25 26  2  0  0  0
 26 27  1  0  0  0
 27 22  2  0  0  0
 20 17  1  0  0  0
  5  1  1  0  0  0
 11  6  2  0  0  0
M  END
> <minimizedAffinity>
-9.84011

$$$$
OCNT-2314158


 22 25  0  0  0  0  0  0  0  0999 V2000
   -5.7624   28.3077    6.2711 C   0  0  0  0  0  0  0  0  0  0  0  0
   -6.8188   28.5845    6.8453 O   0  0  0  0  0  0  0  0  0  0  0  0
   -4.5376   28.7037    6.8354 N   0  0  0  0  0  0  0  0  0  0  0  0
   -3.2191   28.1954    6.5463 C   0  0  0  0  0  0  0  0  0  0  0  0
   -2.9714   26.9774    5.9166 C   0  0  0  0  0  0  0  0  0  0  0  0
   -1.6548   26.6078    5.6718 C   0  0  0  0  0  0  0  0  0  0  0  0
   -0.5792   27.3415    6.0252 N   0  0  0  0  0  0  0  0  0  0  0  0
   -0.8256   28.4899    6.6923 C   0  0  0  0  0  0  0  0  0  0  0  0
   -2.1038   28.9532    6.9933 C   0  0  0  0  0  0  0  0  0  0  0  0
   -2.2653   30.1663    7.7657 N   0  0  0  0  0  0  0  0  0  0  0  0
   -2.8199   31.2123    6.8565 C   0  0  0  0  0  0  0  0  0  0  0  0
   -4.3483   31.1585    7.0243 C   0  0  0  0  0  0  0  0  0  0  0  0
   -4.5798   29.8485    7.7836 C   0  0  0  0  0  0  0  0  0  0  0  0
   -3.3645   29.8560    8.7147 C   0  0  0  0  0  0  0  0  0  0  0  0
   -5.8105   25.9992    3.5950 C   0  0  0  0  0  0  0  0  0  0  0  0
   -5.8759   27.0508    2.8064 N   0  0  0  0  0  0  0  0  0  0  0  0
   -5.8906   28.1210    3.6745 C   0  0  0  0  0  0  0  0  0  0  0  0
   -6.0295   29.4971    3.1519 C   0  0  0  0  0  0  0  0  0  0  0  0
   -5.7811   27.6662    4.9777 C   0  0  0  0  0  0  0  0  0  0  0  0
   -5.7524   26.2936    4.9266 O   0  0  0  0  0  0  0  0  0  0  0  0
   -6.1080   24.3605    1.7576 C   0  0  0  0  0  0  0  0  0  0  0  0
   -5.7951   24.5617    3.2306 C   0  0  0  0  0  0  0  0  0  0  0  0
 21 22  1  0  0  0
 22 15  1  0  0  0
 15 16  2  0  0  0
 16 17  1  0  0  0
 17 18  1  0  0  0
 17 19  2  0  0  0
 19  1  1  0  0  0
  1  2  2  0  0  0
  1  3  1  0  0  0
  3  4  1  0  0  0
  4  5  2  0  0  0
  5  6  1  0  0  0
  6  7  2  0  0  0
  7  8  1  0  0  0
  8  9  2  0  0  0
  9 10  1  0  0  0
 10 11  1  0  0  0
 11 12  1  0  0  0
 12 13  1  0  0  0
 13 14  1  0  0  0
 19 20  1  0  0  0
 20 15  1  0  0  0
 13  3  1  0  0  0
  9  4  1  0  0  0
 14 10  1  0  0  0
M  END
> <minimizedAffinity>
-8.27615

$$$$
OCNT-2314160


 27 28  0  0  0  0  0  0  0  0999 V2000
   -5.6157   28.1858    6.5466 N   0  0  0  0  0  0  0  0  0  0  0  0
   -5.6589   27.6025    7.3868 H   0  0  0  0  0  0  0  0  0  0  0  0
   -5.7981   29.6397    6.7235 C   0  0  0  0  0  0  0  0  0  0  0  0
   -7.2580   29.9806    6.3768 C   0  0  0  0  0  0  0  0  0  0  0  0
   -4.8618   30.4753    5.8450 C   0  0  0  0  0  0  0  0  0  0  0  0
   -5.5763   29.9836    8.2315 C   0  0  0  0  0  0  0  0  0  0  0  0
   -4.1120   32.0156    8.7648 C   0  0  0  0  0  0  0  0  0  0  0  0
   -2.8617   32.5560    9.0842 C   0  0  0  0  0  0  0  0  0  0  0  0
   -1.7459   31.7274    9.2224 C   0  0  0  0  0  0  0  0  0  0  0  0
   -1.8688   30.3540    9.0414 C   0  0  0  0  0  0  0  0  0  0  0  0
   -3.1083   29.8049    8.7196 C   0  0  0  0  0  0  0  0  0  0  0  0
   -4.2421   30.6236    8.5805 C   0  0  0  0  0  0  0  0  0  0  0  0
   -5.1647   34.0045    7.9600 C   0  0  0  0  0  0  0  0  0  0  0  0
   -5.2633   32.7500    8.6259 O   0  0  0  0  0  0  0  0  0  0  0  0
   -5.4597   27.3439    5.1235 S   0  0  0  0  0  0  0  0  0  0  0  0
   -5.7786   28.2290    4.0264 O   0  0  0  0  0  0  0  0  0  0  0  0
   -6.1624   26.0941    5.3174 O   0  0  0  0  0  0  0  0  0  0  0  0
   -3.7510   26.9509    5.0522 C   0  0  0  0  0  0  0  0  0  0  0  0
   -3.2609   26.1838    4.0168 C   0  0  0  0  0  0  0  0  0  0  0  0
   -1.9494   25.8676    3.8888 N   0  0  0  0  0  0  0  0  0  0  0  0
   -1.1007   26.3261    4.8296 C   0  0  0  0  0  0  0  0  0  0  0  0
    0.2321   25.9658    4.6505 N   0  0  0  0  0  0  0  0  0  0  0  0
   -1.5128   27.0875    5.9274 C   0  0  0  0  0  0  0  0  0  0  0  0
   -0.5445   27.5695    6.9649 C   0  0  0  0  0  0  0  0  0  0  0  0
   -2.8715   27.4051    6.0303 C   0  0  0  0  0  0  0  0  0  0  0  0
    0.2772   25.4507    3.7742 H   0  0  0  0  0  0  0  0  0  0  0  0
    0.8374   26.7773    4.6389 H   0  0  0  0  0  0  0  0  0  0  0  0
 13 14  1  0  0  0
 14  7  1  0  0  0
  7  8  2  0  0  0
  8  9  1  0  0  0
  9 10  2  0  0  0
 10 11  1  0  0  0
 11 12  2  0  0  0
 12  6  1  0  0  0
  6  3  1  0  0  0
  3  4  1  0  0  0
  3  5  1  0  0  0
  3  1  1  0  0  0
  1 15  1  0  0  0
 15 16  2  0  0  0
 15 17  2  0  0  0
 15 18  1  0  0  0
 18 19  1  0  0  0
 19 20  2  0  0  0
 20 21  1  0  0  0
 21 22  1  0  0  0
 21 23  2  0  0  0
 23 24  1  0  0  0
 23 25  1  0  0  0
 12  7  1  0  0  0
 25 18  2  0  0  0
  1  2  1  0  0  0
 22 26  1  0  0  0
 22 27  1  0  0  0
M  END
> <minimizedAffinity>
-8.16785

$$$$
OCNT-2314169


 29 33  0  0  0  0  0  0  0  0999 V2000
   -1.9696   26.8212    7.3920 O   0  0  0  0  0  0  0  0  0  0  0  0
   -2.7559   27.6721    6.9827 C   0  0  0  0  0  0  0  0  0  0  0  0
   -3.2971   27.6210    5.6963 N   0  0  0  0  0  0  0  0  0  0  0  0
   -2.7971   26.5788    4.7939 C   0  0  0  0  0  0  0  0  0  0  0  0
   -3.7638   25.3818    4.7064 C   0  0  0  0  0  0  0  0  0  0  0  0
   -5.1643   25.8193    4.4464 N   0  0  0  0  0  0  0  0  0  0  0  0
   -5.3595   27.2721    4.2883 C   0  0  0  0  0  0  0  0  0  0  0  0
   -4.7009   28.0157    5.4703 C   0  0  0  0  0  0  0  0  0  0  0  0
   -3.1802   28.7618    7.8361 C   0  0  0  0  0  0  0  0  0  0  0  0
   -2.6562   30.0206    8.0572 C   0  0  0  0  0  0  0  0  0  0  0  0
   -1.4676   30.8027    7.6247 C   0  0  0  0  0  0  0  0  0  0  0  0
   -1.7275   32.2721    8.0438 C   0  0  0  0  0  0  0  0  0  0  0  0
   -2.9482   32.2316    9.3936 S   0  0  0  0  0  0  0  0  0  0  0  0
   -4.0808   33.0800    9.1025 O   0  0  0  0  0  0  0  0  0  0  0  0
   -2.3020   32.1243   10.6810 O   0  0  0  0  0  0  0  0  0  0  0  0
   -3.4644   30.6468    9.0195 C   0  0  0  0  0  0  0  0  0  0  0  0
   -4.4520   29.7962    9.4226 C   0  0  0  0  0  0  0  0  0  0  0  0
   -4.2420   28.6272    8.7251 N   0  0  0  0  0  0  0  0  0  0  0  0
   -4.7778   27.7738    8.8319 H   0  0  0  0  0  0  0  0  0  0  0  0
   -5.8613   24.9588    3.5739 C   0  0  0  0  0  0  0  0  0  0  0  0
   -5.7600   25.0959    2.1870 C   0  0  0  0  0  0  0  0  0  0  0  0
   -6.4183   24.1937    1.3736 C   0  0  0  0  0  0  0  0  0  0  0  0
   -7.1652   23.1723    1.8313 N   0  0  0  0  0  0  0  0  0  0  0  0
   -7.2870   23.0314    3.1599 C   0  0  0  0  0  0  0  0  0  0  0  0
   -8.0685   21.9868    3.6369 C   0  0  0  0  0  0  0  0  0  0  0  0
   -8.2671   21.7745    5.0027 C   0  0  0  0  0  0  0  0  0  0  0  0
   -7.6781   22.6296    5.9216 C   0  0  0  0  0  0  0  0  0  0  0  0
   -6.8872   23.6840    5.4671 C   0  0  0  0  0  0  0  0  0  0  0  0
   -6.6624   23.8988    4.0858 C   0  0  0  0  0  0  0  0  0  0  0  0
  1  2  2  0  0  0
  2  9  1  0  0  0
  9 10  2  0  0  0
 10 11  1  0  0  0
 11 12  1  0  0  0
 12 13  1  0  0  0
 13 14  2  0  0  0
 13 15  2  0  0  0
 13 16  1  0  0  0
 16 17  2  0  0  0
 17 18  1  0  0  0
  2  3  1  0  0  0
  3  4  1  0  0  0
  4  5  1  0  0  0
  5  6  1  0  0  0
  6 20  1  0  0  0
 20 21  2  0  0  0
 21 22  1  0  0  0
 22 23  2  0  0  0
 23 24  1  0  0  0
 24 25  2  0  0  0
 25 26  1  0  0  0
 26 27  2  0  0  0
 27 28  1  0  0  0
 28 29  2  0  0  0
  6  7  1  0  0  0
  7  8  1  0  0  0
 18  9  1  0  0  0
  8  3  1  0  0  0
 16 10  1  0  0  0
 29 20  1  0  0  0
 29 24  1  0  0  0
 18 19  1  0  0  0
M  END
> <minimizedAffinity>
-10.62970

$$$$
