OCNT-2309483


 27 29  0  0  0  0  0  0  0  0999 V2000
   -4.6855   28.0513    6.0034 N   0  0  0  0  0  0  0  0  0  0  0  0
   -5.3156   27.7639    4.8157 C   0  0  0  0  0  0  0  0  0  0  0  0
   -5.8854   28.5956    4.1151 O   0  0  0  0  0  0  0  0  0  0  0  0
   -5.2549   26.4270    4.4443 N   0  0  0  0  0  0  0  0  0  0  0  0
   -4.8293   25.3274    5.3110 C   0  0  0  0  0  0  0  0  0  0  0  0
   -5.2495   23.9687    4.7531 C   0  0  0  0  0  0  0  0  0  0  0  0
   -4.7322   23.7814    3.4362 O   0  0  0  0  0  0  0  0  0  0  0  0
   -5.0968   24.8239    2.4933 C   0  0  0  0  0  0  0  0  0  0  0  0
   -3.7581   25.3042    1.9047 C   0  0  0  0  0  0  0  0  0  0  0  0
   -5.8441   26.0221    3.1632 C   0  0  0  0  0  0  0  0  0  0  0  0
   -4.0384   27.3601    6.3544 H   0  0  0  0  0  0  0  0  0  0  0  0
   -4.8147   31.7182    8.1158 C   0  0  0  0  0  0  0  0  0  0  0  0
   -5.8824   30.8247    8.1455 C   0  0  0  0  0  0  0  0  0  0  0  0
   -5.7928   29.6279    7.4342 C   0  0  0  0  0  0  0  0  0  0  0  0
   -6.8334   28.7791    7.4704 F   0  0  0  0  0  0  0  0  0  0  0  0
   -4.6563   29.2862    6.6879 C   0  0  0  0  0  0  0  0  0  0  0  0
   -3.5938   30.1842    6.6534 C   0  0  0  0  0  0  0  0  0  0  0  0
   -3.6807   31.3835    7.3638 C   0  0  0  0  0  0  0  0  0  0  0  0
   -2.6415   32.2312    7.3119 F   0  0  0  0  0  0  0  0  0  0  0  0
   -5.0961   34.0821    8.0072 C   0  0  0  0  0  0  0  0  0  0  0  0
   -4.7671   32.9230    8.7620 O   0  0  0  0  0  0  0  0  0  0  0  0
   -5.9585   24.2215    1.3735 C   0  0  0  0  0  0  0  0  0  0  0  0
   -6.2593   22.8489    1.3347 C   0  0  0  0  0  0  0  0  0  0  0  0
   -7.0491   22.3104    0.3150 C   0  0  0  0  0  0  0  0  0  0  0  0
   -7.5523   23.1332   -0.6879 C   0  0  0  0  0  0  0  0  0  0  0  0
   -7.2635   24.4943   -0.6744 C   0  0  0  0  0  0  0  0  0  0  0  0
   -6.4735   25.0332    0.3444 C   0  0  0  0  0  0  0  0  0  0  0  0
 20 21  1  0  0  0
 21 12  1  0  0  0
 12 13  1  0  0  0
 13 14  2  0  0  0
 14 15  1  0  0  0
 14 16  1  0  0  0
 16  1  1  0  0  0
  1  2  1  0  0  0
  2  3  2  0  0  0
  2  4  1  0  0  0
  4  5  1  0  0  0
  5  6  1  0  0  0
  6  7  1  0  0  0
  7  8  1  0  0  0
  8  9  1  0  0  0
  8 22  1  0  0  0
 22 23  2  0  0  0
 23 24  1  0  0  0
 24 25  2  0  0  0
 25 26  1  0  0  0
 26 27  2  0  0  0
  8 10  1  0  0  0
 16 17  2  0  0  0
 17 18  1  0  0  0
 18 19  1  0  0  0
 18 12  2  0  0  0
 10  4  1  0  0  0
 27 22  1  0  0  0
  1 11  1  0  0  0
M  END
> <minimizedAffinity>
-9.89960

$$$$
OCNT-2309487


 25 28  0  0  0  0  0  0  0  0999 V2000
   -3.1904   30.3913    7.1515 N   0  0  0  0  0  0  0  0  0  0  0  0
   -4.6273   30.0222    7.0600 C   0  0  0  0  0  0  0  0  0  0  0  0
   -4.6648   28.6701    6.3304 C   0  0  0  0  0  0  0  0  0  0  0  0
   -3.2445   28.1955    6.4167 C   0  0  0  0  0  0  0  0  0  0  0  0
   -2.7217   26.9583    6.0417 C   0  0  0  0  0  0  0  0  0  0  0  0
   -1.3391   26.7821    6.1525 C   0  0  0  0  0  0  0  0  0  0  0  0
   -0.5076   27.8297    6.5828 C   0  0  0  0  0  0  0  0  0  0  0  0
   -1.0442   29.0677    6.9344 C   0  0  0  0  0  0  0  0  0  0  0  0
   -2.4163   29.2229    6.8838 C   0  0  0  0  0  0  0  0  0  0  0  0
   -3.6017   25.9570    5.5833 N   0  0  0  0  0  0  0  0  0  0  0  0
   -3.7834   25.5276    4.2859 C   0  0  0  0  0  0  0  0  0  0  0  0
   -3.2672   25.9884    3.2781 O   0  0  0  0  0  0  0  0  0  0  0  0
   -4.6741   24.4690    4.2511 N   0  0  0  0  0  0  0  0  0  0  0  0
   -4.2937   25.6229    6.2349 H   0  0  0  0  0  0  0  0  0  0  0  0
   -4.6285   23.8577    5.0524 H   0  0  0  0  0  0  0  0  0  0  0  0
   -4.9783   23.8264    2.9836 C   0  0  0  0  0  0  0  0  0  0  0  0
   -6.4477   24.0271    2.5574 C   0  0  0  0  0  0  0  0  0  0  0  0
   -6.7985   22.8082    1.7521 C   0  0  0  0  0  0  0  0  0  0  0  0
   -5.9184   22.3038    0.6368 C   0  0  0  0  0  0  0  0  0  0  0  0
   -5.7852   21.7496    2.0323 C   0  0  0  0  0  0  0  0  0  0  0  0
   -4.7843   22.2932    3.0134 C   0  0  0  0  0  0  0  0  0  0  0  0
   -4.1952   32.5319    8.4746 C   0  0  0  0  0  0  0  0  0  0  0  0
   -2.7333   31.5227    8.3088 S   0  0  0  0  0  0  0  0  0  0  0  0
   -2.5080   30.8628    9.5774 O   0  0  0  0  0  0  0  0  0  0  0  0
   -1.7019   32.3532    7.7189 O   0  0  0  0  0  0  0  0  0  0  0  0
 22 23  1  0  0  0
 23 24  2  0  0  0
 23 25  2  0  0  0
 23  1  1  0  0  0
  1  2  1  0  0  0
  2  3  1  0  0  0
  3  4  1  0  0  0
  4  5  2  0  0  0
  5 10  1  0  0  0
 10 11  1  0  0  0
 11 12  2  0  0  0
 11 13  1  0  0  0
 13 16  1  0  0  0
 16 17  1  0  0  0
 17 18  1  0  0  0
 18 19  1  0  0  0
 19 20  1  0  0  0
 20 21  1  0  0  0
  5  6  1  0  0  0
  6  7  2  0  0  0
  7  8  1  0  0  0
  8  9  2  0  0  0
  9  1  1  0  0  0
  9  4  1  0  0  0
 21 16  1  0  0  0
 20 18  1  0  0  0
 10 14  1  0  0  0
 13 15  1  0  0  0
M  END
> <minimizedAffinity>
-8.52355

$$$$
OCNT-2309491


 29 33  0  0  0  0  0  0  0  0999 V2000
   -3.1847   32.4005    8.0997 C   0  0  0  0  0  0  0  0  0  0  0  0
   -4.3600   31.6091    7.6392 C   0  0  0  0  0  0  0  0  0  0  0  0
   -5.6392   31.6631    8.1579 C   0  0  0  0  0  0  0  0  0  0  0  0
   -6.6562   30.5721    7.3245 S   0  0  0  0  0  0  0  0  0  0  0  0
   -5.3344   30.0905    6.3208 C   0  0  0  0  0  0  0  0  0  0  0  0
   -4.1979   30.7147    6.5891 N   0  0  0  0  0  0  0  0  0  0  0  0
   -5.4774   29.0587    5.2678 C   0  0  0  0  0  0  0  0  0  0  0  0
   -5.9625   29.4533    3.9912 C   0  0  0  0  0  0  0  0  0  0  0  0
   -6.1114   28.5380    2.9402 C   0  0  0  0  0  0  0  0  0  0  0  0
   -5.7651   27.2286    3.1828 C   0  0  0  0  0  0  0  0  0  0  0  0
   -5.8314   26.2048    2.2896 O   0  0  0  0  0  0  0  0  0  0  0  0
   -5.3097   25.1161    3.0845 C   0  0  0  0  0  0  0  0  0  0  0  0
   -5.0009   25.4958    4.4409 O   0  0  0  0  0  0  0  0  0  0  0  0
   -5.2940   26.8254    4.4086 C   0  0  0  0  0  0  0  0  0  0  0  0
   -5.1424   27.7057    5.4639 C   0  0  0  0  0  0  0  0  0  0  0  0
   -1.8297   31.7659    9.9869 O   0  0  0  0  0  0  0  0  0  0  0  0
   -2.1945   31.5225    8.8372 C   0  0  0  0  0  0  0  0  0  0  0  0
   -1.7506   30.4364    8.1141 N   0  0  0  0  0  0  0  0  0  0  0  0
   -2.1789   30.2691    7.2098 H   0  0  0  0  0  0  0  0  0  0  0  0
   -0.9309   29.3822    8.7112 C   0  0  0  0  0  0  0  0  0  0  0  0
    0.5545   29.5405    8.2897 C   0  0  0  0  0  0  0  0  0  0  0  0
    0.8099   29.2934    6.7871 C   0  0  0  0  0  0  0  0  0  0  0  0
   -0.0095   28.1465    6.3272 C   0  0  0  0  0  0  0  0  0  0  0  0
   -1.0519   27.5524    7.0028 C   0  0  0  0  0  0  0  0  0  0  0  0
   -1.5066   26.5462    6.1331 C   0  0  0  0  0  0  0  0  0  0  0  0
   -0.8060   26.5100    4.9939 N   0  0  0  0  0  0  0  0  0  0  0  0
    0.1053   27.4911    5.1386 N   0  0  0  0  0  0  0  0  0  0  0  0
   -1.4875   27.9697    8.3643 C   0  0  0  0  0  0  0  0  0  0  0  0
    0.7647   27.6512    4.3839 H   0  0  0  0  0  0  0  0  0  0  0  0
 16 17  2  0  0  0
 17  1  1  0  0  0
  1  2  1  0  0  0
  2  3  2  0  0  0
  3  4  1  0  0  0
  4  5  1  0  0  0
  5  7  1  0  0  0
  7  8  1  0  0  0
  8  9  2  0  0  0
  9 10  1  0  0  0
 10 11  1  0  0  0
 11 12  1  0  0  0
 12 13  1  0  0  0
 13 14  1  0  0  0
 14 15  1  0  0  0
  5  6  2  0  0  0
 17 18  1  0  0  0
 18 20  1  0  0  0
 20 21  1  0  0  0
 21 22  1  0  0  0
 22 23  1  0  0  0
 23 24  2  0  0  0
 24 25  1  0  0  0
 25 26  2  0  0  0
 26 27  1  0  0  0
 24 28  1  0  0  0
  6  2  1  0  0  0
 28 20  1  0  0  0
 15  7  2  0  0  0
 27 23  1  0  0  0
 14 10  2  0  0  0
 18 19  1  0  0  0
 27 29  1  0  0  0
M  END
> <minimizedAffinity>
-9.60819

$$$$
OCNT-2309502


 23 26  0  0  0  0  0  0  0  0999 V2000
   -1.4976   28.3284    7.3383 O   0  0  0  0  0  0  0  0  0  0  0  0
   -2.0103   27.6112    6.4772 C   0  0  0  0  0  0  0  0  0  0  0  0
   -1.2795   26.3870    5.9749 C   0  0  0  0  0  0  0  0  0  0  0  0
   -1.5810   26.1040    4.5197 C   0  0  0  0  0  0  0  0  0  0  0  0
   -3.0644   26.0731    4.2977 C   0  0  0  0  0  0  0  0  0  0  0  0
   -3.8808   26.9576    5.0119 C   0  0  0  0  0  0  0  0  0  0  0  0
   -5.2510   27.0222    4.7204 C   0  0  0  0  0  0  0  0  0  0  0  0
   -5.7993   26.1549    3.7607 C   0  0  0  0  0  0  0  0  0  0  0  0
   -4.9990   25.2504    3.0451 C   0  0  0  0  0  0  0  0  0  0  0  0
   -3.6223   25.2357    3.3197 C   0  0  0  0  0  0  0  0  0  0  0  0
   -6.1468   27.9875    5.4477 C   0  0  0  0  0  0  0  0  0  0  0  0
   -5.3547   29.2162    5.8640 C   0  0  0  0  0  0  0  0  0  0  0  0
   -4.1367   28.7939    6.6695 C   0  0  0  0  0  0  0  0  0  0  0  0
   -3.3042   27.8002    6.0003 N   0  0  0  0  0  0  0  0  0  0  0  0
   -5.5803   24.3507    2.0337 C   0  0  0  0  0  0  0  0  0  0  0  0
   -6.1897   24.8665    0.8738 C   0  0  0  0  0  0  0  0  0  0  0  0
   -6.7459   24.0198   -0.0942 C   0  0  0  0  0  0  0  0  0  0  0  0
   -6.7057   22.6377    0.0767 C   0  0  0  0  0  0  0  0  0  0  0  0
   -6.1084   22.1145    1.2136 C   0  0  0  0  0  0  0  0  0  0  0  0
   -6.0787   20.7567    1.3686 O   0  0  0  0  0  0  0  0  0  0  0  0
   -5.5522   22.9560    2.1779 C   0  0  0  0  0  0  0  0  0  0  0  0
   -4.9931   22.3896    3.2610 F   0  0  0  0  0  0  0  0  0  0  0  0
   -5.6395   20.5800    2.2220 H   0  0  0  0  0  0  0  0  0  0  0  0
  1  2  2  0  0  0
  2  3  1  0  0  0
  3  4  1  0  0  0
  4  5  1  0  0  0
  5  6  2  0  0  0
  6  7  1  0  0  0
  7  8  2  0  0  0
  8  9  1  0  0  0
  9 15  1  0  0  0
 15 16  2  0  0  0
 16 17  1  0  0  0
 17 18  2  0  0  0
 18 19  1  0  0  0
 19 20  1  0  0  0
 19 21  2  0  0  0
 21 22  1  0  0  0
  9 10  2  0  0  0
  7 11  1  0  0  0
 11 12  1  0  0  0
 12 13  1  0  0  0
 13 14  1  0  0  0
 14  2  1  0  0  0
 10  5  1  0  0  0
 14  6  1  0  0  0
 21 15  1  0  0  0
 20 23  1  0  0  0
M  END
> <minimizedAffinity>
-9.98210

$$$$
OCNT-2309505


 27 30  0  0  0  0  0  0  0  0999 V2000
   -4.7486   26.8156    4.5429 C   0  0  0  0  0  0  0  0  0  0  0  0
   -5.0780   26.4915    3.0863 C   0  0  0  0  0  0  0  0  0  0  0  0
   -4.3556   25.2116    2.6289 C   0  0  0  0  0  0  0  0  0  0  0  0
   -4.6317   24.9619    1.1262 C   0  0  0  0  0  0  0  0  0  0  0  0
   -5.7784   23.9840    0.8866 C   0  0  0  0  0  0  0  0  0  0  0  0
   -6.7388   24.0753    1.9300 O   0  0  0  0  0  0  0  0  0  0  0  0
   -6.2391   23.6037    3.1820 C   0  0  0  0  0  0  0  0  0  0  0  0
   -4.7691   23.9466    3.4015 C   0  0  0  0  0  0  0  0  0  0  0  0
   -2.9281   25.3905    2.7390 O   0  0  0  0  0  0  0  0  0  0  0  0
   -2.4621   25.9788    3.8824 C   0  0  0  0  0  0  0  0  0  0  0  0
   -1.0880   25.8621    4.1004 C   0  0  0  0  0  0  0  0  0  0  0  0
   -0.5078   26.4069    5.2449 C   0  0  0  0  0  0  0  0  0  0  0  0
   -1.3034   27.0675    6.1765 C   0  0  0  0  0  0  0  0  0  0  0  0
   -2.6754   27.1941    5.9550 C   0  0  0  0  0  0  0  0  0  0  0  0
   -3.2676   26.6734    4.7903 C   0  0  0  0  0  0  0  0  0  0  0  0
   -6.9954   27.5044    6.1503 O   0  0  0  0  0  0  0  0  0  0  0  0
   -6.3103   28.3939    5.6540 C   0  0  0  0  0  0  0  0  0  0  0  0
   -5.2106   28.1552    4.8643 N   0  0  0  0  0  0  0  0  0  0  0  0
   -4.7330   28.9475    4.4484 H   0  0  0  0  0  0  0  0  0  0  0  0
   -6.6289   29.8794    5.8518 C   0  0  0  0  0  0  0  0  0  0  0  0
   -6.1161   30.4457    7.0529 O   0  0  0  0  0  0  0  0  0  0  0  0
   -4.7599   30.5113    7.1990 C   0  0  0  0  0  0  0  0  0  0  0  0
   -3.8627   31.1856    6.3756 C   0  0  0  0  0  0  0  0  0  0  0  0
   -2.5015   31.1707    6.6832 C   0  0  0  0  0  0  0  0  0  0  0  0
   -2.0820   30.4799    7.8079 C   0  0  0  0  0  0  0  0  0  0  0  0
   -2.9196   29.8154    8.6291 N   0  0  0  0  0  0  0  0  0  0  0  0
   -4.2338   29.8437    8.3012 C   0  0  0  0  0  0  0  0  0  0  0  0
 16 17  2  0  0  0
 17 20  1  0  0  0
 20 21  1  0  0  0
 21 22  1  0  0  0
 22 23  1  0  0  0
 23 24  2  0  0  0
 24 25  1  0  0  0
 25 26  2  0  0  0
 26 27  1  0  0  0
 17 18  1  0  0  0
 18  1  1  0  0  0
  1  2  1  0  0  0
  2  3  1  0  0  0
  3  4  1  0  0  0
  4  5  1  0  0  0
  5  6  1  0  0  0
  6  7  1  0  0  0
  7  8  1  0  0  0
  3  9  1  0  0  0
  9 10  1  0  0  0
 10 11  2  0  0  0
 11 12  1  0  0  0
 12 13  2  0  0  0
 13 14  1  0  0  0
 14 15  2  0  0  0
 27 22  2  0  0  0
 15  1  1  0  0  0
  8  3  1  0  0  0
 15 10  1  0  0  0
 18 19  1  0  0  0
M  END
> <minimizedAffinity>
-8.71985

$$$$
OCNT-2309511


 27 29  0  0  0  0  0  0  0  0999 V2000
   -5.3609   31.7505    7.6146 C   0  0  0  0  0  0  0  0  0  0  0  0
   -5.6633   30.7820    8.7596 C   0  0  0  0  0  0  0  0  0  0  0  0
   -6.5865   31.1532    9.7512 C   0  0  0  0  0  0  0  0  0  0  0  0
   -6.8908   30.2855   10.8015 C   0  0  0  0  0  0  0  0  0  0  0  0
   -6.2837   29.0339   10.8717 C   0  0  0  0  0  0  0  0  0  0  0  0
   -5.3766   28.6447    9.8893 C   0  0  0  0  0  0  0  0  0  0  0  0
   -5.0720   29.5087    8.8365 C   0  0  0  0  0  0  0  0  0  0  0  0
   -5.9998   30.1392    5.8807 N   0  0  0  0  0  0  0  0  0  0  0  0
   -4.9597   30.8999    6.3711 C   0  0  0  0  0  0  0  0  0  0  0  0
   -3.8255   30.9502    5.8967 O   0  0  0  0  0  0  0  0  0  0  0  0
   -6.8612   30.1158    6.4133 H   0  0  0  0  0  0  0  0  0  0  0  0
   -5.6434   26.4188    2.5611 C   0  0  0  0  0  0  0  0  0  0  0  0
   -5.7887   27.6474    3.3591 C   0  0  0  0  0  0  0  0  0  0  0  0
   -5.7267   27.9344    4.6996 C   0  0  0  0  0  0  0  0  0  0  0  0
   -5.9563   29.3252    4.7766 C   0  0  0  0  0  0  0  0  0  0  0  0
   -6.1461   29.8462    3.5590 N   0  0  0  0  0  0  0  0  0  0  0  0
   -6.0411   28.7914    2.6711 O   0  0  0  0  0  0  0  0  0  0  0  0
   -4.3012   32.7836    7.9286 N   0  0  0  0  0  0  0  0  0  0  0  0
   -4.9404   34.1048    8.1127 C   0  0  0  0  0  0  0  0  0  0  0  0
   -3.5728   32.4293    9.1739 C   0  0  0  0  0  0  0  0  0  0  0  0
   -2.1059   32.0712    8.8868 C   0  0  0  0  0  0  0  0  0  0  0  0
   -1.7868   30.6067    9.1974 C   0  0  0  0  0  0  0  0  0  0  0  0
   -0.7269   30.0463    8.3866 N   0  0  0  0  0  0  0  0  0  0  0  0
   -0.7205   29.9398    7.0244 C   0  0  0  0  0  0  0  0  0  0  0  0
    0.4945   29.3714    6.7204 C   0  0  0  0  0  0  0  0  0  0  0  0
    1.2257   29.1487    7.8583 N   0  0  0  0  0  0  0  0  0  0  0  0
    0.4660   29.5663    8.8455 C   0  0  0  0  0  0  0  0  0  0  0  0
 12 13  1  0  0  0
 13 14  2  0  0  0
 14 15  1  0  0  0
 15  8  1  0  0  0
  8  9  1  0  0  0
  9 10  2  0  0  0
  9  1  1  0  0  0
  1  2  1  0  0  0
  2  3  2  0  0  0
  3  4  1  0  0  0
  4  5  2  0  0  0
  5  6  1  0  0  0
  6  7  2  0  0  0
  1 18  1  0  0  0
 18 19  1  0  0  0
 18 20  1  0  0  0
 20 21  1  0  0  0
 21 22  1  0  0  0
 22 23  1  0  0  0
 23 24  1  0  0  0
 24 25  2  0  0  0
 25 26  1  0  0  0
 26 27  2  0  0  0
 15 16  2  0  0  0
 16 17  1  0  0  0
 17 13  1  0  0  0
  7  2  1  0  0  0
 27 23  1  0  0  0
  8 11  1  0  0  0
M  END
> <minimizedAffinity>
-8.04110

$$$$
OCNT-2309518


 28 30  0  0  0  0  0  0  0  0999 V2000
   -3.5638   27.6556    6.1798 N   0  0  0  0  0  0  0  0  0  0  0  0
   -2.9499   26.8201    5.2712 C   0  0  0  0  0  0  0  0  0  0  0  0
   -1.7399   26.7938    5.0574 O   0  0  0  0  0  0  0  0  0  0  0  0
   -3.8183   25.9756    4.5855 N   0  0  0  0  0  0  0  0  0  0  0  0
   -5.2860   26.0036    4.6777 C   0  0  0  0  0  0  0  0  0  0  0  0
   -5.9872   24.9872    3.7563 C   0  0  0  0  0  0  0  0  0  0  0  0
   -5.4946   25.1281    2.3792 N   0  0  0  0  0  0  0  0  0  0  0  0
   -4.0309   25.2382    2.2085 C   0  0  0  0  0  0  0  0  0  0  0  0
   -3.2734   25.0987    3.5440 C   0  0  0  0  0  0  0  0  0  0  0  0
   -4.5091   27.4267    6.4323 H   0  0  0  0  0  0  0  0  0  0  0  0
   -1.0280   31.6971    9.3526 C   0  0  0  0  0  0  0  0  0  0  0  0
   -1.7181   30.6614    8.5081 C   0  0  0  0  0  0  0  0  0  0  0  0
   -1.3098   29.3239    8.5783 C   0  0  0  0  0  0  0  0  0  0  0  0
   -1.9349   28.3517    7.7962 C   0  0  0  0  0  0  0  0  0  0  0  0
   -2.9756   28.6985    6.9300 C   0  0  0  0  0  0  0  0  0  0  0  0
   -3.3916   30.0320    6.8704 C   0  0  0  0  0  0  0  0  0  0  0  0
   -2.7624   31.0201    7.6376 C   0  0  0  0  0  0  0  0  0  0  0  0
   -3.0865   32.3513    7.6312 O   0  0  0  0  0  0  0  0  0  0  0  0
   -4.4648   32.7396    7.6450 C   0  0  0  0  0  0  0  0  0  0  0  0
   -4.7875   33.7003    8.7826 C   0  0  0  0  0  0  0  0  0  0  0  0
   -4.6386   34.9866    8.3744 F   0  0  0  0  0  0  0  0  0  0  0  0
   -3.9616   33.5224    9.8402 F   0  0  0  0  0  0  0  0  0  0  0  0
   -6.2094   24.4369    1.4024 C   0  0  0  0  0  0  0  0  0  0  0  0
   -6.6295   23.1115    1.5840 C   0  0  0  0  0  0  0  0  0  0  0  0
   -7.3194   22.3868    0.6635 N   0  0  0  0  0  0  0  0  0  0  0  0
   -7.5732   23.0349   -0.4886 C   0  0  0  0  0  0  0  0  0  0  0  0
   -7.1589   24.3345   -0.7034 C   0  0  0  0  0  0  0  0  0  0  0  0
   -6.4758   25.0483    0.2239 N   0  0  0  0  0  0  0  0  0  0  0  0
 11 12  1  0  0  0
 12 13  1  0  0  0
 13 14  2  0  0  0
 14 15  1  0  0  0
 15  1  1  0  0  0
  1  2  1  0  0  0
  2  3  2  0  0  0
  2  4  1  0  0  0
  4  5  1  0  0  0
  5  6  1  0  0  0
  6  7  1  0  0  0
  7 23  1  0  0  0
 23 24  2  0  0  0
 24 25  1  0  0  0
 25 26  2  0  0  0
 26 27  1  0  0  0
 27 28  2  0  0  0
  7  8  1  0  0  0
  8  9  1  0  0  0
 15 16  2  0  0  0
 16 17  1  0  0  0
 17 18  1  0  0  0
 18 19  1  0  0  0
 19 20  1  0  0  0
 20 21  1  0  0  0
 20 22  1  0  0  0
 17 12  2  0  0  0
  9  4  1  0  0  0
 28 23  1  0  0  0
  1 10  1  0  0  0
M  END
> <minimizedAffinity>
-9.53214

$$$$
OCNT-2309520


 27 29  0  0  0  0  0  0  0  0999 V2000
   -6.2065   26.8759    5.4172 O   0  0  0  0  0  0  0  0  0  0  0  0
   -5.7264   27.6247    4.5727 C   0  0  0  0  0  0  0  0  0  0  0  0
   -5.0723   28.8059    4.8680 N   0  0  0  0  0  0  0  0  0  0  0  0
   -4.6000   29.2998    4.1197 H   0  0  0  0  0  0  0  0  0  0  0  0
   -4.8322   29.2279    6.2129 C   0  0  0  0  0  0  0  0  0  0  0  0
   -5.8010   30.1221    6.9229 C   0  0  0  0  0  0  0  0  0  0  0  0
   -4.4557   30.6698    6.5086 C   0  0  0  0  0  0  0  0  0  0  0  0
   -3.4023   30.9895    7.5527 C   0  0  0  0  0  0  0  0  0  0  0  0
   -2.1274   30.4002    7.4930 C   0  0  0  0  0  0  0  0  0  0  0  0
   -1.8420   29.5442    6.4986 F   0  0  0  0  0  0  0  0  0  0  0  0
   -1.1250   30.6701    8.4255 C   0  0  0  0  0  0  0  0  0  0  0  0
   -1.3677   31.5659    9.4591 C   0  0  0  0  0  0  0  0  0  0  0  0
   -2.6093   32.1908    9.5430 C   0  0  0  0  0  0  0  0  0  0  0  0
   -3.6077   31.9105    8.5988 C   0  0  0  0  0  0  0  0  0  0  0  0
   -5.1036   32.7689    8.7513 Cl  0  0  0  0  0  0  0  0  0  0  0  0
   -5.7921   27.3560    3.0861 C   0  0  0  0  0  0  0  0  0  0  0  0
   -4.9527   26.1440    2.6964 C   0  0  0  0  0  0  0  0  0  0  0  0
   -5.6759   25.2660    1.6918 C   0  0  0  0  0  0  0  0  0  0  0  0
   -6.2057   25.7559    0.6926 O   0  0  0  0  0  0  0  0  0  0  0  0
   -5.6904   23.8939    1.9462 N   0  0  0  0  0  0  0  0  0  0  0  0
   -5.3825   23.3204    3.2598 C   0  0  0  0  0  0  0  0  0  0  0  0
   -4.8273   21.9034    3.1498 C   0  0  0  0  0  0  0  0  0  0  0  0
   -5.7236   21.0077    2.3025 C   0  0  0  0  0  0  0  0  0  0  0  0
   -6.9486   20.7829    2.9959 O   0  0  0  0  0  0  0  0  0  0  0  0
   -5.9948   21.6448    0.9438 C   0  0  0  0  0  0  0  0  0  0  0  0
   -6.5322   23.0655    1.0848 C   0  0  0  0  0  0  0  0  0  0  0  0
   -7.4610   20.1325    2.4845 H   0  0  0  0  0  0  0  0  0  0  0  0
  1  2  2  0  0  0
  2 16  1  0  0  0
 16 17  1  0  0  0
 17 18  1  0  0  0
 18 19  2  0  0  0
 18 20  1  0  0  0
 20 21  1  0  0  0
 21 22  1  0  0  0
 22 23  1  0  0  0
 23 24  1  0  0  0
 23 25  1  0  0  0
 25 26  1  0  0  0
  2  3  1  0  0  0
  3  5  1  0  0  0
  5  6  1  0  0  0
  6  7  1  0  0  0
  7  8  1  0  0  0
  8  9  2  0  0  0
  9 10  1  0  0  0
  9 11  1  0  0  0
 11 12  2  0  0  0
 12 13  1  0  0  0
 13 14  2  0  0  0
 14 15  1  0  0  0
 26 20  1  0  0  0
  7  5  1  0  0  0
 14  8  1  0  0  0
 24 27  1  0  0  0
  3  4  1  0  0  0
M  END
> <minimizedAffinity>
-9.55644

$$$$
OCNT-2309527


 21 22  0  0  0  0  0  0  0  0999 V2000
   -1.4554   29.2374    7.1637 N   0  0  0  0  0  0  0  0  0  0  0  0
   -2.4329   28.2470    7.3823 C   0  0  0  0  0  0  0  0  0  0  0  0
   -2.1635   27.1126    7.7809 O   0  0  0  0  0  0  0  0  0  0  0  0
   -3.8787   28.5708    7.1404 C   0  0  0  0  0  0  0  0  0  0  0  0
   -4.3331   28.4702    5.8669 N   0  0  0  0  0  0  0  0  0  0  0  0
   -5.6269   28.8129    5.6842 C   0  0  0  0  0  0  0  0  0  0  0  0
   -6.4517   29.2296    6.7027 C   0  0  0  0  0  0  0  0  0  0  0  0
   -7.7288   29.5584    6.4848 F   0  0  0  0  0  0  0  0  0  0  0  0
   -5.8919   29.2862    7.9570 C   0  0  0  0  0  0  0  0  0  0  0  0
   -4.6072   28.9599    8.2123 N   0  0  0  0  0  0  0  0  0  0  0  0
   -0.0448   28.9653    7.5038 C   0  0  0  0  0  0  0  0  0  0  0  0
    0.9041   29.3456    6.3641 C   0  0  0  0  0  0  0  0  0  0  0  0
    0.3908   29.5982    8.8270 C   0  0  0  0  0  0  0  0  0  0  0  0
   -1.7379   30.5081    6.4853 C   0  0  0  0  0  0  0  0  0  0  0  0
   -4.8080   34.2062    9.7898 C   0  0  0  0  0  0  0  0  0  0  0  0
   -4.0356   33.2328    8.9498 C   0  0  0  0  0  0  0  0  0  0  0  0
   -2.8723   32.6348    9.4453 C   0  0  0  0  0  0  0  0  0  0  0  0
   -2.1329   31.7553    8.6503 C   0  0  0  0  0  0  0  0  0  0  0  0
   -2.5361   31.4673    7.3393 C   0  0  0  0  0  0  0  0  0  0  0  0
   -3.6971   32.0763    6.8428 C   0  0  0  0  0  0  0  0  0  0  0  0
   -4.4348   32.9562    7.6382 C   0  0  0  0  0  0  0  0  0  0  0  0
 15 16  1  0  0  0
 16 17  1  0  0  0
 17 18  2  0  0  0
 18 19  1  0  0  0
 19 14  1  0  0  0
 14  1  1  0  0  0
  1  2  1  0  0  0
  2  3  2  0  0  0
  2  4  1  0  0  0
  4  5  2  0  0  0
  5  6  1  0  0  0
  6  7  2  0  0  0
  7  8  1  0  0  0
  7  9  1  0  0  0
  9 10  2  0  0  0
  1 11  1  0  0  0
 11 12  1  0  0  0
 11 13  1  0  0  0
 19 20  2  0  0  0
 20 21  1  0  0  0
 21 16  2  0  0  0
 10  4  1  0  0  0
M  END
> <minimizedAffinity>
-8.19983

$$$$
OCNT-2309539


 25 28  0  0  0  0  0  0  0  0999 V2000
   -6.8594   23.3531    3.9431 C   0  0  0  0  0  0  0  0  0  0  0  0
   -6.8084   22.2351    3.1962 N   0  0  0  0  0  0  0  0  0  0  0  0
   -5.9271   22.2068    2.1903 C   0  0  0  0  0  0  0  0  0  0  0  0
   -5.8932   20.9842    1.3294 C   0  0  0  0  0  0  0  0  0  0  0  0
   -5.0948   23.2096    1.8810 N   0  0  0  0  0  0  0  0  0  0  0  0
   -5.1519   24.3317    2.6356 C   0  0  0  0  0  0  0  0  0  0  0  0
   -6.0558   24.4716    3.6846 C   0  0  0  0  0  0  0  0  0  0  0  0
   -6.1871   25.7078    4.5446 C   0  0  0  0  0  0  0  0  0  0  0  0
   -5.8029   27.0401    3.8936 C   0  0  0  0  0  0  0  0  0  0  0  0
   -4.3674   27.3150    3.8324 N   0  0  0  0  0  0  0  0  0  0  0  0
   -3.5562   26.1899    3.3636 C   0  0  0  0  0  0  0  0  0  0  0  0
   -4.1698   25.3949    2.2111 C   0  0  0  0  0  0  0  0  0  0  0  0
   -4.0293   27.6066    4.7497 H   0  0  0  0  0  0  0  0  0  0  0  0
  -10.0189   22.0722    9.4055 C   0  0  0  0  0  0  0  0  0  0  0  0
   -8.6930   21.6610    9.5318 C   0  0  0  0  0  0  0  0  0  0  0  0
   -7.8083   21.7973    8.4564 C   0  0  0  0  0  0  0  0  0  0  0  0
   -8.2345   22.3508    7.2404 C   0  0  0  0  0  0  0  0  0  0  0  0
   -7.2595   22.4510    6.0802 C   0  0  0  0  0  0  0  0  0  0  0  0
   -7.7496   23.3814    5.0456 N   0  0  0  0  0  0  0  0  0  0  0  0
   -9.1297   23.0621    4.6432 C   0  0  0  0  0  0  0  0  0  0  0  0
  -10.0639   23.3683    5.8186 C   0  0  0  0  0  0  0  0  0  0  0  0
   -9.5778   22.7454    7.1053 C   0  0  0  0  0  0  0  0  0  0  0  0
  -10.4530   22.6147    8.1934 C   0  0  0  0  0  0  0  0  0  0  0  0
  -10.5783   22.3080   11.7039 C   0  0  0  0  0  0  0  0  0  0  0  0
  -10.9805   21.9995   10.3756 O   0  0  0  0  0  0  0  0  0  0  0  0
 24 25  1  0  0  0
 25 14  1  0  0  0
 14 15  1  0  0  0
 15 16  2  0  0  0
 16 17  1  0  0  0
 17 18  1  0  0  0
 18 19  1  0  0  0
 19  1  1  0  0  0
  1  2  1  0  0  0
  2  3  2  0  0  0
  3  4  1  0  0  0
  3  5  1  0  0  0
  5  6  2  0  0  0
  6  7  1  0  0  0
  7  8  1  0  0  0
  8  9  1  0  0  0
  9 10  1  0  0  0
 10 11  1  0  0  0
 11 12  1  0  0  0
 19 20  1  0  0  0
 20 21  1  0  0  0
 21 22  1  0  0  0
 22 23  1  0  0  0
 23 14  2  0  0  0
 22 17  2  0  0  0
  7  1  2  0  0  0
 12  6  1  0  0  0
 10 13  1  0  0  0
M  END
> <minimizedAffinity>
-8.81904

$$$$
OCNT-2309546


 30 34  0  0  0  0  0  0  0  0999 V2000
   -4.4945   25.3109    3.9616 C   0  0  0  0  0  0  0  0  0  0  0  0
   -3.9764   24.3458    3.0719 C   0  0  0  0  0  0  0  0  0  0  0  0
   -4.3386   24.3335    1.7231 C   0  0  0  0  0  0  0  0  0  0  0  0
   -5.2150   25.2927    1.2356 C   0  0  0  0  0  0  0  0  0  0  0  0
   -5.7158   26.2730    2.0928 C   0  0  0  0  0  0  0  0  0  0  0  0
   -5.3607   26.3119    3.4578 C   0  0  0  0  0  0  0  0  0  0  0  0
   -5.9104   27.3923    4.2953 C   0  0  0  0  0  0  0  0  0  0  0  0
   -5.8342   28.7347    3.8935 C   0  0  0  0  0  0  0  0  0  0  0  0
   -6.3415   29.7592    4.7000 C   0  0  0  0  0  0  0  0  0  0  0  0
   -6.9452   29.4650    5.9281 C   0  0  0  0  0  0  0  0  0  0  0  0
   -7.0599   28.1214    6.3140 C   0  0  0  0  0  0  0  0  0  0  0  0
   -6.5405   27.1013    5.5125 C   0  0  0  0  0  0  0  0  0  0  0  0
   -7.5016   30.5773    6.7876 C   0  0  0  0  0  0  0  0  0  0  0  0
   -6.5801   30.9797    7.8431 N   0  0  0  0  0  0  0  0  0  0  0  0
   -5.7715   32.0848    7.8495 C   0  0  0  0  0  0  0  0  0  0  0  0
   -5.0796   32.0421    9.0363 C   0  0  0  0  0  0  0  0  0  0  0  0
   -5.5533   30.8870    9.6856 C   0  0  0  0  0  0  0  0  0  0  0  0
   -6.4734   30.2380    8.9686 N   0  0  0  0  0  0  0  0  0  0  0  0
   -4.0516   25.2770    5.4120 C   0  0  0  0  0  0  0  0  0  0  0  0
   -3.4666   29.2460    7.0047 C   0  0  0  0  0  0  0  0  0  0  0  0
   -2.0010   28.9358    6.9317 C   0  0  0  0  0  0  0  0  0  0  0  0
   -1.0413   30.1486    6.5791 C   0  0  0  0  0  0  0  0  0  0  0  0
    0.0038   29.1302    7.1344 C   0  0  0  0  0  0  0  0  0  0  0  0
   -0.0413   27.9413    6.1664 C   0  0  0  0  0  0  0  0  0  0  0  0
   -1.5023   27.8272    6.0644 N   0  0  0  0  0  0  0  0  0  0  0  0
   -2.0423   26.6297    5.6559 C   0  0  0  0  0  0  0  0  0  0  0  0
   -1.3501   25.7163    5.2098 O   0  0  0  0  0  0  0  0  0  0  0  0
   -3.3917   26.5057    5.8074 N   0  0  0  0  0  0  0  0  0  0  0  0
   -1.0975   28.8532    8.2238 C   0  0  0  0  0  0  0  0  0  0  0  0
   -3.9073   27.3425    5.5974 H   0  0  0  0  0  0  0  0  0  0  0  0
 20 21  1  0  0  0
 21 22  1  0  0  0
 22 23  1  0  0  0
 23 24  1  0  0  0
 24 25  1  0  0  0
 25 26  1  0  0  0
 26 27  2  0  0  0
 26 28  1  0  0  0
 28 19  1  0  0  0
 19  1  1  0  0  0
  1  2  2  0  0  0
  2  3  1  0  0  0
  3  4  2  0  0  0
  4  5  1  0  0  0
  5  6  2  0  0  0
  6  7  1  0  0  0
  7  8  1  0  0  0
  8  9  2  0  0  0
  9 10  1  0  0  0
 10 13  1  0  0  0
 13 14  1  0  0  0
 14 15  1  0  0  0
 15 16  2  0  0  0
 16 17  1  0  0  0
 17 18  2  0  0  0
 10 11  2  0  0  0
 11 12  1  0  0  0
 23 29  1  0  0  0
 25 21  1  0  0  0
  6  1  1  0  0  0
 12  7  2  0  0  0
 29 21  1  0  0  0
 18 14  1  0  0  0
 28 30  1  0  0  0
M  END
> <minimizedAffinity>
-9.75947

$$$$
OCNT-2309549


 25 27  0  0  0  0  0  0  0  0999 V2000
   -2.9245   26.4414    4.7981 C   0  0  0  0  0  0  0  0  0  0  0  0
   -1.5768   26.0948    4.6561 C   0  0  0  0  0  0  0  0  0  0  0  0
   -0.5958   26.6106    5.5149 C   0  0  0  0  0  0  0  0  0  0  0  0
   -0.9728   27.4942    6.5418 C   0  0  0  0  0  0  0  0  0  0  0  0
   -0.2601   28.1815    7.5613 C   0  0  0  0  0  0  0  0  0  0  0  0
   -1.1692   28.9179    8.2856 C   0  0  0  0  0  0  0  0  0  0  0  0
   -2.4107   28.7031    7.7443 N   0  0  0  0  0  0  0  0  0  0  0  0
   -2.3196   27.8352    6.6740 C   0  0  0  0  0  0  0  0  0  0  0  0
   -3.3099   27.3200    5.8156 C   0  0  0  0  0  0  0  0  0  0  0  0
   -4.8470   24.9582    4.1720 C   0  0  0  0  0  0  0  0  0  0  0  0
   -5.1834   24.5451    5.2753 O   0  0  0  0  0  0  0  0  0  0  0  0
   -3.8346   25.8582    3.8893 N   0  0  0  0  0  0  0  0  0  0  0  0
   -3.7688   26.1883    2.9358 H   0  0  0  0  0  0  0  0  0  0  0  0
   -7.8038   23.2527   -0.5151 C   0  0  0  0  0  0  0  0  0  0  0  0
   -7.0223   23.6687    0.6968 C   0  0  0  0  0  0  0  0  0  0  0  0
   -7.1827   22.9887    1.9110 C   0  0  0  0  0  0  0  0  0  0  0  0
   -6.4816   23.3951    3.0499 C   0  0  0  0  0  0  0  0  0  0  0  0
   -5.6124   24.4907    2.9817 C   0  0  0  0  0  0  0  0  0  0  0  0
   -5.4753   25.1934    1.7801 C   0  0  0  0  0  0  0  0  0  0  0  0
   -6.1765   24.7834    0.6439 C   0  0  0  0  0  0  0  0  0  0  0  0
   -3.6402   29.3196    8.2267 C   0  0  0  0  0  0  0  0  0  0  0  0
   -3.3540   30.5278    9.1297 C   0  0  0  0  0  0  0  0  0  0  0  0
   -3.4521   31.8253    8.4271 N   0  0  0  0  0  0  0  0  0  0  0  0
   -2.1301   32.4575    8.3675 C   0  0  0  0  0  0  0  0  0  0  0  0
   -4.3930   32.7290    9.0983 C   0  0  0  0  0  0  0  0  0  0  0  0
 14 15  1  0  0  0
 15 16  1  0  0  0
 16 17  2  0  0  0
 17 18  1  0  0  0
 18 10  1  0  0  0
 10 11  2  0  0  0
 10 12  1  0  0  0
 12  1  1  0  0  0
  1  2  2  0  0  0
  2  3  1  0  0  0
  3  4  2  0  0  0
  4  5  1  0  0  0
  5  6  2  0  0  0
  6  7  1  0  0  0
  7 21  1  0  0  0
 21 22  1  0  0  0
 22 23  1  0  0  0
 23 24  1  0  0  0
 23 25  1  0  0  0
  7  8  1  0  0  0
  8  9  2  0  0  0
 18 19  2  0  0  0
 19 20  1  0  0  0
 20 15  2  0  0  0
  9  1  1  0  0  0
  8  4  1  0  0  0
 12 13  1  0  0  0
M  END
> <minimizedAffinity>
-9.03932

$$$$
OCNT-2309554


 26 28  0  0  0  0  0  0  0  0999 V2000
   -4.4941   26.7118    5.6673 N   0  0  0  0  0  0  0  0  0  0  0  0
   -4.5392   27.4000    6.4205 H   0  0  0  0  0  0  0  0  0  0  0  0
   -5.6077   26.9688    4.7429 C   0  0  0  0  0  0  0  0  0  0  0  0
   -6.1310   24.5568    4.0548 C   0  0  0  0  0  0  0  0  0  0  0  0
   -6.2790   23.5828    3.0527 C   0  0  0  0  0  0  0  0  0  0  0  0
   -6.0999   23.9115    1.7049 C   0  0  0  0  0  0  0  0  0  0  0  0
   -5.7680   25.2253    1.3726 C   0  0  0  0  0  0  0  0  0  0  0  0
   -5.5878   25.5732    0.0895 F   0  0  0  0  0  0  0  0  0  0  0  0
   -5.6145   26.2005    2.3515 C   0  0  0  0  0  0  0  0  0  0  0  0
   -5.7928   25.8796    3.7069 C   0  0  0  0  0  0  0  0  0  0  0  0
   -5.9636   23.0094    5.8716 C   0  0  0  0  0  0  0  0  0  0  0  0
   -6.2790   24.3116    5.3951 O   0  0  0  0  0  0  0  0  0  0  0  0
   -6.2171   23.0472    0.6499 O   0  0  0  0  0  0  0  0  0  0  0  0
   -7.5277   22.7272    0.2040 C   0  0  0  0  0  0  0  0  0  0  0  0
   -3.1706   26.8050    5.0251 C   0  0  0  0  0  0  0  0  0  0  0  0
   -2.0075   26.1564    5.8218 C   0  0  0  0  0  0  0  0  0  0  0  0
   -0.6588   26.7671    5.4833 C   0  0  0  0  0  0  0  0  0  0  0  0
   -0.6108   27.9865    6.3784 C   0  0  0  0  0  0  0  0  0  0  0  0
   -1.4037   27.5543    7.6055 C   0  0  0  0  0  0  0  0  0  0  0  0
   -2.1654   26.3888    7.2344 O   0  0  0  0  0  0  0  0  0  0  0  0
   -2.3584   28.5901    8.0800 C   0  0  0  0  0  0  0  0  0  0  0  0
   -2.1419   29.8723    8.2971 N   0  0  0  0  0  0  0  0  0  0  0  0
   -3.3648   30.3275    8.7028 C   0  0  0  0  0  0  0  0  0  0  0  0
   -4.3346   29.4116    8.7412 N   0  0  0  0  0  0  0  0  0  0  0  0
   -3.6704   28.3092    8.3510 N   0  0  0  0  0  0  0  0  0  0  0  0
   -4.1461   27.4125    8.2538 H   0  0  0  0  0  0  0  0  0  0  0  0
 11 12  1  0  0  0
 12  4  1  0  0  0
  4  5  1  0  0  0
  5  6  2  0  0  0
  6 13  1  0  0  0
 13 14  1  0  0  0
  6  7  1  0  0  0
  7  8  1  0  0  0
  7  9  2  0  0  0
  9 10  1  0  0  0
 10  3  1  0  0  0
  3  1  1  0  0  0
  1 15  1  0  0  0
 15 16  1  0  0  0
 16 17  1  0  0  0
 17 18  1  0  0  0
 18 19  1  0  0  0
 19 21  1  0  0  0
 21 22  2  0  0  0
 22 23  1  0  0  0
 23 24  2  0  0  0
 24 25  1  0  0  0
 19 20  1  0  0  0
 10  4  2  0  0  0
 20 16  1  0  0  0
 25 21  1  0  0  0
  1  2  1  0  0  0
 25 26  1  0  0  0
M  END
> <minimizedAffinity>
-7.74091

$$$$
OCNT-2309565


 24 26  0  0  0  0  0  0  0  0999 V2000
   -4.6311   28.6203    6.5322 C   0  0  0  0  0  0  0  0  0  0  0  0
   -1.2930   30.6240    8.1919 N   0  0  0  0  0  0  0  0  0  0  0  0
   -1.7073   31.1311    6.8823 C   0  0  0  0  0  0  0  0  0  0  0  0
   -3.0945   30.6508    6.4600 C   0  0  0  0  0  0  0  0  0  0  0  0
   -3.1762   29.1117    6.4188 C   0  0  0  0  0  0  0  0  0  0  0  0
   -2.2943   28.4767    7.5129 C   0  0  0  0  0  0  0  0  0  0  0  0
   -2.0199   29.4458    8.6627 C   0  0  0  0  0  0  0  0  0  0  0  0
   -1.1210   31.6613    9.2192 C   0  0  0  0  0  0  0  0  0  0  0  0
   -2.3355   31.9425   10.1217 C   0  0  0  0  0  0  0  0  0  0  0  0
   -5.0946   34.3414    8.1851 C   0  0  0  0  0  0  0  0  0  0  0  0
   -4.1191   33.4940    8.8717 C   0  0  0  0  0  0  0  0  0  0  0  0
   -3.3176   32.7985    9.4346 C   0  0  0  0  0  0  0  0  0  0  0  0
   -5.0905   27.9303    5.3022 C   0  0  0  0  0  0  0  0  0  0  0  0
   -4.8977   26.6910    4.9157 N   0  0  0  0  0  0  0  0  0  0  0  0
   -5.5507   26.6536    3.6936 C   0  0  0  0  0  0  0  0  0  0  0  0
   -6.1177   27.8248    3.3527 N   0  0  0  0  0  0  0  0  0  0  0  0
   -5.8149   28.6680    4.4167 O   0  0  0  0  0  0  0  0  0  0  0  0
   -5.6004   25.4400    2.8709 C   0  0  0  0  0  0  0  0  0  0  0  0
   -5.7565   25.5361    1.4855 C   0  0  0  0  0  0  0  0  0  0  0  0
   -5.8017   24.3677    0.7243 C   0  0  0  0  0  0  0  0  0  0  0  0
   -5.6904   23.1456    1.3668 C   0  0  0  0  0  0  0  0  0  0  0  0
   -5.7299   22.0067    0.6652 F   0  0  0  0  0  0  0  0  0  0  0  0
   -5.5381   23.1247    2.7408 C   0  0  0  0  0  0  0  0  0  0  0  0
   -5.4907   24.2407    3.5071 N   0  0  0  0  0  0  0  0  0  0  0  0
 10 11  1  0  0  0
 11 12  3  0  0  0
 12  9  1  0  0  0
  9  8  1  0  0  0
  8  2  1  0  0  0
  2  3  1  0  0  0
  3  4  1  0  0  0
  4  5  1  0  0  0
  5  1  1  0  0  0
  1 13  1  0  0  0
 13 14  2  0  0  0
 14 15  1  0  0  0
 15 18  1  0  0  0
 18 19  2  0  0  0
 19 20  1  0  0  0
 20 21  2  0  0  0
 21 22  1  0  0  0
 21 23  1  0  0  0
 23 24  2  0  0  0
 15 16  2  0  0  0
 16 17  1  0  0  0
  5  6  1  0  0  0
  6  7  1  0  0  0
  7  2  1  0  0  0
 17 13  1  0  0  0
 24 18  1  0  0  0
M  END
> <minimizedAffinity>
-8.67039

$$$$
OCNT-2309567


 28 32  0  0  0  0  0  0  0  0999 V2000
   -3.3928   26.4748    4.9119 C   0  0  0  0  0  0  0  0  0  0  0  0
   -3.9828   25.1708    5.4599 C   0  0  0  0  0  0  0  0  0  0  0  0
   -5.1568   24.6978    4.6044 C   0  0  0  0  0  0  0  0  0  0  0  0
   -4.8477   24.7325    3.1683 N   0  0  0  0  0  0  0  0  0  0  0  0
   -3.4651   25.0432    2.7961 C   0  0  0  0  0  0  0  0  0  0  0  0
   -3.0583   26.3810    3.4125 C   0  0  0  0  0  0  0  0  0  0  0  0
   -2.8508   29.7945    8.2654 C   0  0  0  0  0  0  0  0  0  0  0  0
   -1.5386   29.8599    8.7292 C   0  0  0  0  0  0  0  0  0  0  0  0
   -0.5482   29.0108    8.2190 C   0  0  0  0  0  0  0  0  0  0  0  0
   -0.9183   28.0949    7.2280 C   0  0  0  0  0  0  0  0  0  0  0  0
   -0.1633   27.1580    6.5647 N   0  0  0  0  0  0  0  0  0  0  0  0
   -0.9385   26.4732    5.6703 C   0  0  0  0  0  0  0  0  0  0  0  0
   -2.2300   26.9627    5.7410 C   0  0  0  0  0  0  0  0  0  0  0  0
   -2.2196   27.9990    6.7359 C   0  0  0  0  0  0  0  0  0  0  0  0
   -3.1945   28.8675    7.2714 C   0  0  0  0  0  0  0  0  0  0  0  0
    0.8227   27.0015    6.7208 H   0  0  0  0  0  0  0  0  0  0  0  0
   -4.9290   29.9214    9.4176 C   0  0  0  0  0  0  0  0  0  0  0  0
   -3.8933   30.5730    8.6937 O   0  0  0  0  0  0  0  0  0  0  0  0
   -5.4310   23.6960    2.4240 C   0  0  0  0  0  0  0  0  0  0  0  0
   -5.3045   22.4052    2.8456 N   0  0  0  0  0  0  0  0  0  0  0  0
   -5.8701   21.4095    2.1330 C   0  0  0  0  0  0  0  0  0  0  0  0
   -6.5762   21.5035    0.9948 N   0  0  0  0  0  0  0  0  0  0  0  0
   -6.6590   22.7797    0.5925 C   0  0  0  0  0  0  0  0  0  0  0  0
   -6.1327   23.8940    1.2195 C   0  0  0  0  0  0  0  0  0  0  0  0
   -6.4812   24.9594    0.3592 C   0  0  0  0  0  0  0  0  0  0  0  0
   -7.1962   24.5681   -0.7035 N   0  0  0  0  0  0  0  0  0  0  0  0
   -7.2826   23.2323   -0.5334 N   0  0  0  0  0  0  0  0  0  0  0  0
   -7.7745   22.6761   -1.2215 H   0  0  0  0  0  0  0  0  0  0  0  0
 17 18  1  0  0  0
 18  7  1  0  0  0
  7  8  2  0  0  0
  8  9  1  0  0  0
  9 10  2  0  0  0
 10 11  1  0  0  0
 11 12  1  0  0  0
 12 13  2  0  0  0
 13  1  1  0  0  0
  1  2  1  0  0  0
  2  3  1  0  0  0
  3  4  1  0  0  0
  4 19  1  0  0  0
 19 20  1  0  0  0
 20 21  2  0  0  0
 21 22  1  0  0  0
 22 23  2  0  0  0
 23 24  1  0  0  0
 24 25  1  0  0  0
 25 26  2  0  0  0
 26 27  1  0  0  0
  4  5  1  0  0  0
  5  6  1  0  0  0
 13 14  1  0  0  0
 14 15  2  0  0  0
 15  7  1  0  0  0
 14 10  1  0  0  0
  6  1  1  0  0  0
 24 19  2  0  0  0
 27 23  1  0  0  0
 11 16  1  0  0  0
 27 28  1  0  0  0
M  END
> <minimizedAffinity>
-9.54510

$$$$
OCNT-2309576


 24 27  0  0  0  0  0  0  0  0999 V2000
   -4.2538   30.7903    5.1292 O   0  0  0  0  0  0  0  0  0  0  0  0
   -4.6355   29.8786    5.8736 C   0  0  0  0  0  0  0  0  0  0  0  0
   -5.6709   29.0320    5.4931 N   0  0  0  0  0  0  0  0  0  0  0  0
   -5.9913   27.7363    6.0941 C   0  0  0  0  0  0  0  0  0  0  0  0
   -5.5327   26.5992    5.1820 C   0  0  0  0  0  0  0  0  0  0  0  0
   -6.1060   26.7674    3.7631 C   0  0  0  0  0  0  0  0  0  0  0  0
   -5.8180   28.1730    3.2042 C   0  0  0  0  0  0  0  0  0  0  0  0
   -6.2927   29.2408    4.1861 C   0  0  0  0  0  0  0  0  0  0  0  0
   -3.9517   29.7269    7.2427 C   0  0  0  0  0  0  0  0  0  0  0  0
   -2.6237   28.9714    7.0857 C   0  0  0  0  0  0  0  0  0  0  0  0
   -1.8600   28.8868    8.3921 C   0  0  0  0  0  0  0  0  0  0  0  0
   -1.2866   30.5368    8.8713 S   0  0  0  0  0  0  0  0  0  0  0  0
   -2.8305   31.4298    8.8096 C   0  0  0  0  0  0  0  0  0  0  0  0
   -2.8971   32.6238    9.5433 C   0  0  0  0  0  0  0  0  0  0  0  0
   -4.0714   33.3746    9.5863 C   0  0  0  0  0  0  0  0  0  0  0  0
   -5.1962   32.9343    8.9011 C   0  0  0  0  0  0  0  0  0  0  0  0
   -5.1376   31.7559    8.1576 C   0  0  0  0  0  0  0  0  0  0  0  0
   -3.9480   31.0015    8.0737 C   0  0  0  0  0  0  0  0  0  0  0  0
   -5.6298   25.6754    2.8288 C   0  0  0  0  0  0  0  0  0  0  0  0
   -4.9911   24.5387    3.2939 C   0  0  0  0  0  0  0  0  0  0  0  0
   -4.6075   23.6175    2.3446 C   0  0  0  0  0  0  0  0  0  0  0  0
   -4.8225   23.7735    1.0272 N   0  0  0  0  0  0  0  0  0  0  0  0
   -5.4476   24.9059    0.6771 C   0  0  0  0  0  0  0  0  0  0  0  0
   -5.8653   25.8704    1.5130 N   0  0  0  0  0  0  0  0  0  0  0  0
  1  2  2  0  0  0
  2  9  1  0  0  0
  9 10  1  0  0  0
 10 11  1  0  0  0
 11 12  1  0  0  0
 12 13  1  0  0  0
 13 14  2  0  0  0
 14 15  1  0  0  0
 15 16  2  0  0  0
 16 17  1  0  0  0
 17 18  2  0  0  0
  2  3  1  0  0  0
  3  4  1  0  0  0
  4  5  1  0  0  0
  5  6  1  0  0  0
  6 19  1  0  0  0
 19 20  1  0  0  0
 20 21  2  0  0  0
 21 22  1  0  0  0
 22 23  2  0  0  0
 23 24  1  0  0  0
  6  7  1  0  0  0
  7  8  1  0  0  0
 18  9  1  0  0  0
  8  3  1  0  0  0
 18 13  1  0  0  0
 24 19  2  0  0  0
M  END
> <minimizedAffinity>
-8.76363

$$$$
OCNT-2309577


 26 28  0  0  0  0  0  0  0  0999 V2000
   -4.8034   26.9923    3.3092 C   0  0  0  0  0  0  0  0  0  0  0  0
   -5.1166   26.4520    4.7152 C   0  0  0  0  0  0  0  0  0  0  0  0
   -3.9143   26.7472    5.6608 C   0  0  0  0  0  0  0  0  0  0  0  0
   -3.7615   28.2234    6.0270 C   0  0  0  0  0  0  0  0  0  0  0  0
   -5.0352   28.7203    6.5632 N   0  0  0  0  0  0  0  0  0  0  0  0
   -6.1760   28.5905    5.6512 C   0  0  0  0  0  0  0  0  0  0  0  0
   -6.3797   27.1132    5.3142 C   0  0  0  0  0  0  0  0  0  0  0  0
   -4.9392   29.9579    7.2235 C   0  0  0  0  0  0  0  0  0  0  0  0
   -4.3130   30.9903    6.4998 C   0  0  0  0  0  0  0  0  0  0  0  0
   -4.1531   32.2687    7.0377 C   0  0  0  0  0  0  0  0  0  0  0  0
   -4.6223   32.5368    8.3170 C   0  0  0  0  0  0  0  0  0  0  0  0
   -4.4296   34.1083    8.9881 Cl  0  0  0  0  0  0  0  0  0  0  0  0
   -5.2493   31.5396    9.0591 C   0  0  0  0  0  0  0  0  0  0  0  0
   -5.4120   30.2515    8.5203 C   0  0  0  0  0  0  0  0  0  0  0  0
   -6.0727   29.2753    9.3368 C   0  0  0  0  0  0  0  0  0  0  0  0
   -6.6086   28.4932   10.0076 N   0  0  0  0  0  0  0  0  0  0  0  0
   -5.3094   24.9169    4.6647 C   0  0  0  0  0  0  0  0  0  0  0  0
   -4.8937   24.1869    5.5694 O   0  0  0  0  0  0  0  0  0  0  0  0
   -5.9768   24.3609    3.6050 N   0  0  0  0  0  0  0  0  0  0  0  0
   -6.0520   22.9330    3.3019 C   0  0  0  0  0  0  0  0  0  0  0  0
   -6.7901   23.3557    2.0230 C   0  0  0  0  0  0  0  0  0  0  0  0
   -6.1562   24.7451    2.2143 C   0  0  0  0  0  0  0  0  0  0  0  0
   -6.4160   22.6430    0.7502 C   0  0  0  0  0  0  0  0  0  0  0  0
   -7.3844   22.9183   -0.3770 C   0  0  0  0  0  0  0  0  0  0  0  0
   -6.3440   21.3066    0.9700 F   0  0  0  0  0  0  0  0  0  0  0  0
   -5.1730   23.0459    0.3821 F   0  0  0  0  0  0  0  0  0  0  0  0
  1  2  1  0  0  0
  2 17  1  0  0  0
 17 18  2  0  0  0
 17 19  1  0  0  0
 19 20  1  0  0  0
 20 21  1  0  0  0
 21 23  1  0  0  0
 23 24  1  0  0  0
 23 25  1  0  0  0
 23 26  1  0  0  0
 21 22  1  0  0  0
  2  3  1  0  0  0
  3  4  1  0  0  0
  4  5  1  0  0  0
  5  8  1  0  0  0
  8  9  1  0  0  0
  9 10  2  0  0  0
 10 11  1  0  0  0
 11 12  1  0  0  0
 11 13  2  0  0  0
 13 14  1  0  0  0
 14 15  1  0  0  0
 15 16  3  0  0  0
  5  6  1  0  0  0
  6  7  1  0  0  0
  7  2  1  0  0  0
 22 19  1  0  0  0
 14  8  2  0  0  0
M  END
> <minimizedAffinity>
-9.04476

$$$$
OCNT-2309578


 26 29  0  0  0  0  0  0  0  0999 V2000
   -1.6500   29.3018    8.3064 C   0  0  0  0  0  0  0  0  0  0  0  0
   -0.7956   30.3786    9.0140 C   0  0  0  0  0  0  0  0  0  0  0  0
    0.6115   29.8044    8.9857 C   0  0  0  0  0  0  0  0  0  0  0  0
    0.6657   29.1473    7.6189 C   0  0  0  0  0  0  0  0  0  0  0  0
   -0.6748   28.6195    7.4258 N   0  0  0  0  0  0  0  0  0  0  0  0
   -0.8338   27.4667    6.6819 C   0  0  0  0  0  0  0  0  0  0  0  0
    0.0868   27.0229    5.9897 O   0  0  0  0  0  0  0  0  0  0  0  0
   -2.8328   29.9553    7.5472 C   0  0  0  0  0  0  0  0  0  0  0  0
   -4.8149   31.3146    8.4244 C   0  0  0  0  0  0  0  0  0  0  0  0
   -5.9732   31.3977    9.2042 C   0  0  0  0  0  0  0  0  0  0  0  0
   -6.4418   30.2846    9.9036 C   0  0  0  0  0  0  0  0  0  0  0  0
   -5.7640   29.0759    9.8217 C   0  0  0  0  0  0  0  0  0  0  0  0
   -4.6094   28.9821    9.0492 C   0  0  0  0  0  0  0  0  0  0  0  0
   -4.1075   30.1011    8.3606 C   0  0  0  0  0  0  0  0  0  0  0  0
   -4.7905   33.6558    7.9622 C   0  0  0  0  0  0  0  0  0  0  0  0
   -4.2946   32.3501    7.6956 O   0  0  0  0  0  0  0  0  0  0  0  0
   -2.1654   26.7353    6.7406 C   0  0  0  0  0  0  0  0  0  0  0  0
   -2.7927   26.5751    5.3988 C   0  0  0  0  0  0  0  0  0  0  0  0
   -3.9709   27.1210    4.9277 C   0  0  0  0  0  0  0  0  0  0  0  0
   -4.9870   27.9580    5.4779 C   0  0  0  0  0  0  0  0  0  0  0  0
   -6.0341   28.3190    4.7147 C   0  0  0  0  0  0  0  0  0  0  0  0
   -6.1611   27.8836    3.3381 C   0  0  0  0  0  0  0  0  0  0  0  0
   -5.2059   27.0968    2.8206 C   0  0  0  0  0  0  0  0  0  0  0  0
   -4.1138   26.7110    3.5991 N   0  0  0  0  0  0  0  0  0  0  0  0
   -3.0734   25.9264    3.2166 N   0  0  0  0  0  0  0  0  0  0  0  0
   -2.2973   25.8448    4.2971 C   0  0  0  0  0  0  0  0  0  0  0  0
 15 16  1  0  0  0
 16  9  1  0  0  0
  9 10  2  0  0  0
 10 11  1  0  0  0
 11 12  2  0  0  0
 12 13  1  0  0  0
 13 14  2  0  0  0
 14  8  1  0  0  0
  8  1  1  0  0  0
  1  2  1  0  0  0
  2  3  1  0  0  0
  3  4  1  0  0  0
  4  5  1  0  0  0
  5  6  1  0  0  0
  6  7  2  0  0  0
  6 17  1  0  0  0
 17 18  1  0  0  0
 18 19  2  0  0  0
 19 20  1  0  0  0
 20 21  2  0  0  0
 21 22  1  0  0  0
 22 23  2  0  0  0
 23 24  1  0  0  0
 24 25  1  0  0  0
 25 26  2  0  0  0
 14  9  1  0  0  0
  5  1  1  0  0  0
 26 18  1  0  0  0
 24 19  1  0  0  0
M  END
> <minimizedAffinity>
-9.19174

$$$$
OCNT-2309581


 21 23  0  0  0  0  0  0  0  0999 V2000
   -6.6959   22.2064    2.1343 C   0  0  0  0  0  0  0  0  0  0  0  0
   -6.3275   21.1021    1.7455 O   0  0  0  0  0  0  0  0  0  0  0  0
   -7.1739   22.4473    3.4196 N   0  0  0  0  0  0  0  0  0  0  0  0
   -7.3088   23.8023    4.0014 C   0  0  0  0  0  0  0  0  0  0  0  0
   -7.4807   23.7916    5.5284 C   0  0  0  0  0  0  0  0  0  0  0  0
   -8.5018   22.8257    5.8923 N   0  0  0  0  0  0  0  0  0  0  0  0
   -9.8362   23.1965    6.0300 C   0  0  0  0  0  0  0  0  0  0  0  0
  -10.2605   24.3161    6.2594 O   0  0  0  0  0  0  0  0  0  0  0  0
  -10.6743   21.9637    5.8118 C   0  0  0  0  0  0  0  0  0  0  0  0
   -9.7757   21.1435    4.8921 C   0  0  0  0  0  0  0  0  0  0  0  0
   -8.3755   21.4642    5.4013 C   0  0  0  0  0  0  0  0  0  0  0  0
   -7.2714   21.3033    4.3405 C   0  0  0  0  0  0  0  0  0  0  0  0
   -5.4695   24.1869    1.1869 C   0  0  0  0  0  0  0  0  0  0  0  0
   -5.4234   25.2340    0.2480 C   0  0  0  0  0  0  0  0  0  0  0  0
   -6.4623   25.4229   -0.6664 C   0  0  0  0  0  0  0  0  0  0  0  0
   -7.5582   24.5637   -0.6700 C   0  0  0  0  0  0  0  0  0  0  0  0
   -7.6225   23.5177    0.2485 C   0  0  0  0  0  0  0  0  0  0  0  0
   -6.5949   23.3405    1.1862 C   0  0  0  0  0  0  0  0  0  0  0  0
   -4.3049   23.9936    2.1339 C   0  0  0  0  0  0  0  0  0  0  0  0
   -3.4271   26.2774    3.1051 N   0  0  0  0  0  0  0  0  0  0  0  0
   -3.8161   25.2584    2.7058 C   0  0  0  0  0  0  0  0  0  0  0  0
 20 21  3  0  0  0
 21 19  1  0  0  0
 19 13  1  0  0  0
 13 14  2  0  0  0
 14 15  1  0  0  0
 15 16  2  0  0  0
 16 17  1  0  0  0
 17 18  2  0  0  0
 18  1  1  0  0  0
  1  2  2  0  0  0
  1  3  1  0  0  0
  3  4  1  0  0  0
  4  5  1  0  0  0
  5  6  1  0  0  0
  6  7  1  0  0  0
  7  8  2  0  0  0
  7  9  1  0  0  0
  9 10  1  0  0  0
 10 11  1  0  0  0
 11 12  1  0  0  0
 18 13  1  0  0  0
 12  3  1  0  0  0
 11  6  1  0  0  0
M  END
> <minimizedAffinity>
-7.76175

$$$$
OCNT-2309582


 23 24  0  0  0  0  0  0  0  0999 V2000
   -2.3722   28.1256    6.7180 C   0  0  0  0  0  0  0  0  0  0  0  0
   -1.3865   27.6709    6.1462 O   0  0  0  0  0  0  0  0  0  0  0  0
   -3.7019   27.9131    6.3956 N   0  0  0  0  0  0  0  0  0  0  0  0
   -4.3268   28.4609    6.9774 H   0  0  0  0  0  0  0  0  0  0  0  0
   -4.2585   27.1314    5.3621 C   0  0  0  0  0  0  0  0  0  0  0  0
   -3.8342   25.8140    5.1394 C   0  0  0  0  0  0  0  0  0  0  0  0
   -4.4134   25.0260    4.1442 C   0  0  0  0  0  0  0  0  0  0  0  0
   -5.4338   25.5420    3.3603 C   0  0  0  0  0  0  0  0  0  0  0  0
   -5.8679   26.8512    3.5633 C   0  0  0  0  0  0  0  0  0  0  0  0
   -5.2851   27.6777    4.5472 C   0  0  0  0  0  0  0  0  0  0  0  0
   -5.7882   29.1109    4.7244 C   0  0  0  0  0  0  0  0  0  0  0  0
   -6.2148   29.8144    3.4275 C   0  0  0  0  0  0  0  0  0  0  0  0
   -6.9362   29.1484    5.7370 C   0  0  0  0  0  0  0  0  0  0  0  0
   -2.2236   28.9915    7.9803 C   0  0  0  0  0  0  0  0  0  0  0  0
   -3.5698   32.5974    7.9876 C   0  0  0  0  0  0  0  0  0  0  0  0
   -3.6208   31.8752    9.3364 C   0  0  0  0  0  0  0  0  0  0  0  0
   -2.2932   31.3507    9.8791 C   0  0  0  0  0  0  0  0  0  0  0  0
   -1.1732   31.0535    8.8814 C   0  0  0  0  0  0  0  0  0  0  0  0
   -1.4751   30.2394    7.6995 N   0  0  0  0  0  0  0  0  0  0  0  0
   -2.0636   31.0215    6.6110 C   0  0  0  0  0  0  0  0  0  0  0  0
   -3.4553   31.6102    6.8211 C   0  0  0  0  0  0  0  0  0  0  0  0
   -4.8392   34.5858    8.3628 C   0  0  0  0  0  0  0  0  0  0  0  0
   -4.8189   33.2838    7.7910 O   0  0  0  0  0  0  0  0  0  0  0  0
 22 23  1  0  0  0
 23 15  1  0  0  0
 15 16  1  0  0  0
 16 17  1  0  0  0
 17 18  1  0  0  0
 18 19  1  0  0  0
 19 14  1  0  0  0
 14  1  1  0  0  0
  1  2  2  0  0  0
  1  3  1  0  0  0
  3  5  1  0  0  0
  5  6  2  0  0  0
  6  7  1  0  0  0
  7  8  2  0  0  0
  8  9  1  0  0  0
  9 10  2  0  0  0
 10 11  1  0  0  0
 11 12  1  0  0  0
 11 13  1  0  0  0
 19 20  1  0  0  0
 20 21  1  0  0  0
 21 15  1  0  0  0
 10  5  1  0  0  0
  3  4  1  0  0  0
M  END
> <minimizedAffinity>
-8.28401

$$$$
OCNT-2309589


 28 29  0  0  0  0  0  0  0  0999 V2000
   -5.3112   28.3638    6.4297 N   0  0  0  0  0  0  0  0  0  0  0  0
   -4.5487   27.6876    5.4866 C   0  0  0  0  0  0  0  0  0  0  0  0
   -3.3244   27.6927    5.5471 O   0  0  0  0  0  0  0  0  0  0  0  0
   -6.3143   28.2423    6.4563 H   0  0  0  0  0  0  0  0  0  0  0  0
   -5.3542   26.9601    4.4011 C   0  0  0  0  0  0  0  0  0  0  0  0
   -5.8262   27.9743    3.3466 C   0  0  0  0  0  0  0  0  0  0  0  0
   -6.5589   26.2624    5.0481 C   0  0  0  0  0  0  0  0  0  0  0  0
   -4.2430   25.7336    3.6379 S   0  0  0  0  0  0  0  0  0  0  0  0
   -3.8654   24.7316    4.6188 O   0  0  0  0  0  0  0  0  0  0  0  0
   -3.2401   26.4141    2.8376 O   0  0  0  0  0  0  0  0  0  0  0  0
   -5.2621   24.8519    2.4497 C   0  0  0  0  0  0  0  0  0  0  0  0
   -5.8349   23.6251    2.8049 C   0  0  0  0  0  0  0  0  0  0  0  0
   -6.6564   22.9589    1.8931 C   0  0  0  0  0  0  0  0  0  0  0  0
   -6.9171   23.5298    0.6466 C   0  0  0  0  0  0  0  0  0  0  0  0
   -7.9271   22.7047   -0.4750 Cl  0  0  0  0  0  0  0  0  0  0  0  0
   -6.3736   24.7692    0.3061 C   0  0  0  0  0  0  0  0  0  0  0  0
   -5.5513   25.4410    1.2132 C   0  0  0  0  0  0  0  0  0  0  0  0
   -4.7116   29.0894    7.5404 C   0  0  0  0  0  0  0  0  0  0  0  0
   -4.8719   30.5993    7.3859 C   0  0  0  0  0  0  0  0  0  0  0  0
   -3.6382   31.3036    6.8101 C   0  0  0  0  0  0  0  0  0  0  0  0
   -2.6671   32.6150    8.7000 C   0  0  0  0  0  0  0  0  0  0  0  0
   -2.5630   31.4688    7.7939 N   0  0  0  0  0  0  0  0  0  0  0  0
   -1.4031   30.6990    7.7717 C   0  0  0  0  0  0  0  0  0  0  0  0
   -0.6958   30.3811    8.9455 C   0  0  0  0  0  0  0  0  0  0  0  0
    0.4708   29.6038    8.9329 C   0  0  0  0  0  0  0  0  0  0  0  0
    0.9670   29.1110    7.7343 C   0  0  0  0  0  0  0  0  0  0  0  0
    0.2943   29.3978    6.5544 C   0  0  0  0  0  0  0  0  0  0  0  0
   -0.8704   30.1780    6.5789 C   0  0  0  0  0  0  0  0  0  0  0  0
 21 22  1  0  0  0
 22 20  1  0  0  0
 20 19  1  0  0  0
 19 18  1  0  0  0
 18  1  1  0  0  0
  1  2  1  0  0  0
  2  3  2  0  0  0
  2  5  1  0  0  0
  5  6  1  0  0  0
  5  7  1  0  0  0
  5  8  1  0  0  0
  8  9  2  0  0  0
  8 10  2  0  0  0
  8 11  1  0  0  0
 11 12  1  0  0  0
 12 13  2  0  0  0
 13 14  1  0  0  0
 14 15  1  0  0  0
 14 16  2  0  0  0
 16 17  1  0  0  0
 22 23  1  0  0  0
 23 24  2  0  0  0
 24 25  1  0  0  0
 25 26  2  0  0  0
 26 27  1  0  0  0
 27 28  2  0  0  0
 17 11  2  0  0  0
 28 23  1  0  0  0
  1  4  1  0  0  0
M  END
> <minimizedAffinity>
-9.22603

$$$$
OCNT-2309593


 28 31  0  0  0  0  0  0  0  0999 V2000
   -4.0639   26.2137    3.8688 C   0  0  0  0  0  0  0  0  0  0  0  0
   -4.0946   25.1892    2.9398 C   0  0  0  0  0  0  0  0  0  0  0  0
   -5.3636   25.1425    2.4133 N   0  0  0  0  0  0  0  0  0  0  0  0
   -6.1654   26.0699    2.9845 N   0  0  0  0  0  0  0  0  0  0  0  0
   -5.3986   26.7152    3.8740 C   0  0  0  0  0  0  0  0  0  0  0  0
   -5.8642   24.2672    1.4069 C   0  0  0  0  0  0  0  0  0  0  0  0
   -5.7004   22.8779    1.5004 C   0  0  0  0  0  0  0  0  0  0  0  0
   -6.2034   22.0445    0.4963 C   0  0  0  0  0  0  0  0  0  0  0  0
   -6.8692   22.5878   -0.6011 C   0  0  0  0  0  0  0  0  0  0  0  0
   -7.0353   23.9672   -0.7008 C   0  0  0  0  0  0  0  0  0  0  0  0
   -6.5355   24.8059    0.2976 C   0  0  0  0  0  0  0  0  0  0  0  0
   -5.9691   27.7840    4.6896 C   0  0  0  0  0  0  0  0  0  0  0  0
   -6.5847   27.5010    5.9158 C   0  0  0  0  0  0  0  0  0  0  0  0
   -7.1264   28.5321    6.6873 C   0  0  0  0  0  0  0  0  0  0  0  0
   -7.0629   29.8497    6.2351 C   0  0  0  0  0  0  0  0  0  0  0  0
   -6.4644   30.1387    5.0095 C   0  0  0  0  0  0  0  0  0  0  0  0
   -5.9227   29.1090    4.2373 C   0  0  0  0  0  0  0  0  0  0  0  0
   -2.8958   26.6675    4.6790 C   0  0  0  0  0  0  0  0  0  0  0  0
   -3.1155   26.2738    6.0693 N   0  0  0  0  0  0  0  0  0  0  0  0
   -3.9652   26.7102    6.4208 H   0  0  0  0  0  0  0  0  0  0  0  0
   -1.9811   26.6143    6.9400 C   0  0  0  0  0  0  0  0  0  0  0  0
   -1.4948   28.0637    6.8187 C   0  0  0  0  0  0  0  0  0  0  0  0
   -2.5335   31.4944   10.0737 C   0  0  0  0  0  0  0  0  0  0  0  0
   -2.7131   30.4368    9.1164 N   0  0  0  0  0  0  0  0  0  0  0  0
   -3.8760   29.8727    8.7002 C   0  0  0  0  0  0  0  0  0  0  0  0
   -3.6167   28.9371    7.8160 N   0  0  0  0  0  0  0  0  0  0  0  0
   -2.2486   28.9693    7.7224 C   0  0  0  0  0  0  0  0  0  0  0  0
   -1.6531   29.8753    8.5090 N   0  0  0  0  0  0  0  0  0  0  0  0
 23 24  1  0  0  0
 24 25  1  0  0  0
 25 26  2  0  0  0
 26 27  1  0  0  0
 27 22  1  0  0  0
 22 21  1  0  0  0
 21 19  1  0  0  0
 19 18  1  0  0  0
 18  1  1  0  0  0
  1  2  2  0  0  0
  2  3  1  0  0  0
  3  6  1  0  0  0
  6  7  2  0  0  0
  7  8  1  0  0  0
  8  9  2  0  0  0
  9 10  1  0  0  0
 10 11  2  0  0  0
  3  4  1  0  0  0
  4  5  2  0  0  0
  5 12  1  0  0  0
 12 13  2  0  0  0
 13 14  1  0  0  0
 14 15  2  0  0  0
 15 16  1  0  0  0
 16 17  2  0  0  0
 27 28  2  0  0  0
 28 24  1  0  0  0
  5  1  1  0  0  0
 17 12  1  0  0  0
 11  6  1  0  0  0
 19 20  1  0  0  0
M  END
> <minimizedAffinity>
-8.94452

$$$$
OCNT-2309595


 29 32  0  0  0  0  0  0  0  0999 V2000
   -4.6871   24.0948    2.5974 C   0  0  0  0  0  0  0  0  0  0  0  0
   -3.7614   23.2927    2.5519 O   0  0  0  0  0  0  0  0  0  0  0  0
   -6.0120   23.7666    2.8310 N   0  0  0  0  0  0  0  0  0  0  0  0
   -6.6856   24.5229    2.8024 H   0  0  0  0  0  0  0  0  0  0  0  0
   -4.7708   27.7655    4.3992 N   0  0  0  0  0  0  0  0  0  0  0  0
   -3.8810   26.6241    4.6386 C   0  0  0  0  0  0  0  0  0  0  0  0
   -3.3419   26.1223    3.3015 C   0  0  0  0  0  0  0  0  0  0  0  0
   -4.4786   25.5999    2.4102 C   0  0  0  0  0  0  0  0  0  0  0  0
   -5.8036   26.3345    2.6744 C   0  0  0  0  0  0  0  0  0  0  0  0
   -5.6014   27.7554    3.1961 C   0  0  0  0  0  0  0  0  0  0  0  0
   -5.9794   29.8764    7.7909 C   0  0  0  0  0  0  0  0  0  0  0  0
   -6.8812   29.6994    6.7502 C   0  0  0  0  0  0  0  0  0  0  0  0
   -6.4814   28.9908    5.6133 C   0  0  0  0  0  0  0  0  0  0  0  0
   -5.1926   28.4584    5.5274 C   0  0  0  0  0  0  0  0  0  0  0  0
   -4.3159   28.6519    6.5389 N   0  0  0  0  0  0  0  0  0  0  0  0
   -4.7160   29.3396    7.6368 C   0  0  0  0  0  0  0  0  0  0  0  0
   -6.6193   31.1754    9.9353 N   0  0  0  0  0  0  0  0  0  0  0  0
   -6.3319   30.5908    8.9749 C   0  0  0  0  0  0  0  0  0  0  0  0
   -6.5586   22.4505    3.0641 C   0  0  0  0  0  0  0  0  0  0  0  0
   -6.0979   21.2490    2.2594 C   0  0  0  0  0  0  0  0  0  0  0  0
   -7.4776   21.7956    2.0495 C   0  0  0  0  0  0  0  0  0  0  0  0
   -6.8670   22.2227    4.5441 C   0  0  0  0  0  0  0  0  0  0  0  0
   -5.8443   22.2318    5.5126 C   0  0  0  0  0  0  0  0  0  0  0  0
   -6.1234   22.0446    6.8688 C   0  0  0  0  0  0  0  0  0  0  0  0
   -7.4370   21.8524    7.2792 C   0  0  0  0  0  0  0  0  0  0  0  0
   -7.6858   21.6791    8.5853 F   0  0  0  0  0  0  0  0  0  0  0  0
   -8.4711   21.8477    6.3490 C   0  0  0  0  0  0  0  0  0  0  0  0
  -10.1027   21.6223    6.8487 Cl  0  0  0  0  0  0  0  0  0  0  0  0
   -8.1882   22.0345    4.9938 C   0  0  0  0  0  0  0  0  0  0  0  0
 17 18  3  0  0  0
 18 11  1  0  0  0
 11 12  2  0  0  0
 12 13  1  0  0  0
 13 14  2  0  0  0
 14  5  1  0  0  0
  5  6  1  0  0  0
  6  7  1  0  0  0
  7  8  1  0  0  0
  8  1  1  0  0  0
  1  2  2  0  0  0
  1  3  1  0  0  0
  3 19  1  0  0  0
 19 22  1  0  0  0
 22 23  1  0  0  0
 23 24  2  0  0  0
 24 25  1  0  0  0
 25 26  1  0  0  0
 25 27  2  0  0  0
 27 28  1  0  0  0
 27 29  1  0  0  0
 19 20  1  0  0  0
 20 21  1  0  0  0
  8  9  1  0  0  0
  9 10  1  0  0  0
 14 15  1  0  0  0
 15 16  2  0  0  0
 16 11  1  0  0  0
 10  5  1  0  0  0
 21 19  1  0  0  0
 29 22  2  0  0  0
  3  4  1  0  0  0
M  END
> <minimizedAffinity>
-9.41369

$$$$
OCNT-2309599


 34 38  0  0  0  0  0  0  0  0999 V2000
   -7.1983   22.8424    1.4585 C   0  0  0  0  0  0  0  0  0  0  0  0
   -6.1423   23.7293    2.0070 C   0  0  0  0  0  0  0  0  0  0  0  0
   -5.3658   24.4394    1.1779 N   0  0  0  0  0  0  0  0  0  0  0  0
   -4.5436   25.1133    2.0016 N   0  0  0  0  0  0  0  0  0  0  0  0
   -4.7559   24.8513    3.3315 C   0  0  0  0  0  0  0  0  0  0  0  0
   -5.8081   23.9588    3.3700 C   0  0  0  0  0  0  0  0  0  0  0  0
   -3.8409   25.7384    1.6121 H   0  0  0  0  0  0  0  0  0  0  0  0
   -6.3723   23.4025    4.5812 C   0  0  0  0  0  0  0  0  0  0  0  0
   -5.6196   22.5219    5.3708 C   0  0  0  0  0  0  0  0  0  0  0  0
   -6.1643   21.9850    6.5394 C   0  0  0  0  0  0  0  0  0  0  0  0
   -7.4578   22.3315    6.9238 C   0  0  0  0  0  0  0  0  0  0  0  0
   -7.9209   21.7832    8.0925 O   0  0  0  0  0  0  0  0  0  0  0  0
   -9.0861   22.4711    8.5639 C   0  0  0  0  0  0  0  0  0  0  0  0
  -10.0715   22.6926    7.4283 C   0  0  0  0  0  0  0  0  0  0  0  0
   -9.5087   23.5507    6.4289 O   0  0  0  0  0  0  0  0  0  0  0  0
   -8.2191   23.1932    6.1275 C   0  0  0  0  0  0  0  0  0  0  0  0
   -7.6736   23.7413    4.9672 C   0  0  0  0  0  0  0  0  0  0  0  0
   -4.0101   25.4009    4.3615 N   0  0  0  0  0  0  0  0  0  0  0  0
   -4.0614   26.7548    4.6739 C   0  0  0  0  0  0  0  0  0  0  0  0
   -4.7860   27.5469    4.0694 O   0  0  0  0  0  0  0  0  0  0  0  0
   -3.4175   24.7735    4.8867 H   0  0  0  0  0  0  0  0  0  0  0  0
   -3.1813   27.1621    5.7933 C   0  0  0  0  0  0  0  0  0  0  0  0
   -3.3219   28.3615    6.3809 N   0  0  0  0  0  0  0  0  0  0  0  0
   -2.3896   28.4345    7.3586 N   0  0  0  0  0  0  0  0  0  0  0  0
   -1.6417   27.2760    7.3883 C   0  0  0  0  0  0  0  0  0  0  0  0
   -2.1230   26.4472    6.4039 C   0  0  0  0  0  0  0  0  0  0  0  0
   -2.2797   29.5840    8.1860 C   0  0  0  0  0  0  0  0  0  0  0  0
   -1.0806   30.3057    8.2546 C   0  0  0  0  0  0  0  0  0  0  0  0
    0.0118   29.9502    7.5641 F   0  0  0  0  0  0  0  0  0  0  0  0
   -0.9607   31.4407    9.0624 C   0  0  0  0  0  0  0  0  0  0  0  0
   -2.0404   31.8801    9.8209 C   0  0  0  0  0  0  0  0  0  0  0  0
   -3.2386   31.1761    9.7664 C   0  0  0  0  0  0  0  0  0  0  0  0
   -3.3539   30.0420    8.9567 C   0  0  0  0  0  0  0  0  0  0  0  0
   -4.5469   29.4323    8.9532 F   0  0  0  0  0  0  0  0  0  0  0  0
  1  2  1  0  0  0
  2  3  2  0  0  0
  3  4  1  0  0  0
  4  5  1  0  0  0
  5 18  1  0  0  0
 18 19  1  0  0  0
 19 20  2  0  0  0
 19 22  1  0  0  0
 22 23  2  0  0  0
 23 24  1  0  0  0
 24 27  1  0  0  0
 27 28  2  0  0  0
 28 29  1  0  0  0
 28 30  1  0  0  0
 30 31  2  0  0  0
 31 32  1  0  0  0
 32 33  2  0  0  0
 33 34  1  0  0  0
 24 25  1  0  0  0
 25 26  2  0  0  0
  5  6  2  0  0  0
  6  8  1  0  0  0
  8  9  1  0  0  0
  9 10  2  0  0  0
 10 11  1  0  0  0
 11 12  1  0  0  0
 12 13  1  0  0  0
 13 14  1  0  0  0
 14 15  1  0  0  0
 15 16  1  0  0  0
 16 17  1  0  0  0
  6  2  1  0  0  0
 17  8  2  0  0  0
 26 22  1  0  0  0
 16 11  2  0  0  0
 33 27  1  0  0  0
  4  7  1  0  0  0
 18 21  1  0  0  0
M  END
> <minimizedAffinity>
-11.11598

$$$$
OCNT-2309602


 28 30  0  0  0  0  0  0  0  0999 V2000
   -6.3416   27.2625    5.6555 O   0  0  0  0  0  0  0  0  0  0  0  0
   -5.6565   28.5055    5.3489 S   0  0  0  0  0  0  0  0  0  0  0  0
   -6.3575   29.7647    5.4770 O   0  0  0  0  0  0  0  0  0  0  0  0
   -4.1902   28.5394    6.3527 C   0  0  0  0  0  0  0  0  0  0  0  0
   -3.8652   29.6977    7.0640 C   0  0  0  0  0  0  0  0  0  0  0  0
   -2.6927   29.7413    7.8276 C   0  0  0  0  0  0  0  0  0  0  0  0
   -1.8412   28.6341    7.8747 C   0  0  0  0  0  0  0  0  0  0  0  0
   -2.1701   27.4873    7.1426 C   0  0  0  0  0  0  0  0  0  0  0  0
   -3.3349   27.4380    6.3744 C   0  0  0  0  0  0  0  0  0  0  0  0
   -0.6744   28.5367    8.5775 O   0  0  0  0  0  0  0  0  0  0  0  0
    0.2652   29.5887    8.4488 C   0  0  0  0  0  0  0  0  0  0  0  0
   -0.0953   30.6595    9.1889 F   0  0  0  0  0  0  0  0  0  0  0  0
    1.4649   29.1557    8.8966 F   0  0  0  0  0  0  0  0  0  0  0  0
    0.4091   29.9606    7.1590 F   0  0  0  0  0  0  0  0  0  0  0  0
   -5.0879   28.3118    3.7938 N   0  0  0  0  0  0  0  0  0  0  0  0
   -4.8169   29.1793    3.3441 H   0  0  0  0  0  0  0  0  0  0  0  0
   -4.9350   27.1064    3.1430 C   0  0  0  0  0  0  0  0  0  0  0  0
   -5.9170   26.4696    2.5235 N   0  0  0  0  0  0  0  0  0  0  0  0
   -5.3609   25.3409    2.0040 N   0  0  0  0  0  0  0  0  0  0  0  0
   -4.0125   25.2901    2.3002 C   0  0  0  0  0  0  0  0  0  0  0  0
   -3.7159   26.4196    3.0266 C   0  0  0  0  0  0  0  0  0  0  0  0
   -6.1680   24.4208    1.2600 C   0  0  0  0  0  0  0  0  0  0  0  0
   -6.4677   23.2217    1.8488 N   0  0  0  0  0  0  0  0  0  0  0  0
   -7.2259   22.3452    1.1560 C   0  0  0  0  0  0  0  0  0  0  0  0
   -7.7184   22.5959   -0.1118 C   0  0  0  0  0  0  0  0  0  0  0  0
   -7.4135   23.8168   -0.7025 C   0  0  0  0  0  0  0  0  0  0  0  0
   -6.6307   24.7399   -0.0128 C   0  0  0  0  0  0  0  0  0  0  0  0
   -6.3599   25.9005   -0.6231 F   0  0  0  0  0  0  0  0  0  0  0  0
  1  2  2  0  0  0
  2  3  2  0  0  0
  2 15  1  0  0  0
 15 17  1  0  0  0
 17 18  2  0  0  0
 18 19  1  0  0  0
 19 22  1  0  0  0
 22 23  1  0  0  0
 23 24  2  0  0  0
 24 25  1  0  0  0
 25 26  2  0  0  0
 26 27  1  0  0  0
 27 28  1  0  0  0
 19 20  1  0  0  0
 20 21  2  0  0  0
  2  4  1  0  0  0
  4  5  1  0  0  0
  5  6  2  0  0  0
  6  7  1  0  0  0
  7 10  1  0  0  0
 10 11  1  0  0  0
 11 12  1  0  0  0
 11 13  1  0  0  0
 11 14  1  0  0  0
  7  8  2  0  0  0
  8  9  1  0  0  0
 21 17  1  0  0  0
  9  4  2  0  0  0
 27 22  2  0  0  0
 15 16  1  0  0  0
M  END
> <minimizedAffinity>
-9.71626

$$$$
OCNT-2309614


 25 27  0  0  0  0  0  0  0  0999 V2000
   -4.4269   28.3196    7.1658 N   0  0  0  0  0  0  0  0  0  0  0  0
   -4.8404   27.7984    7.9438 H   0  0  0  0  0  0  0  0  0  0  0  0
   -1.0887   26.2326    4.7708 N   0  0  0  0  0  0  0  0  0  0  0  0
   -2.2755   25.9923    4.1729 N   0  0  0  0  0  0  0  0  0  0  0  0
   -3.2133   26.6046    4.8918 N   0  0  0  0  0  0  0  0  0  0  0  0
   -2.5978   27.2308    5.9475 C   0  0  0  0  0  0  0  0  0  0  0  0
   -3.0737   28.0116    7.0144 C   0  0  0  0  0  0  0  0  0  0  0  0
   -2.1528   28.4861    7.8993 N   0  0  0  0  0  0  0  0  0  0  0  0
   -0.8484   28.1854    7.7156 C   0  0  0  0  0  0  0  0  0  0  0  0
   -0.2919   27.4461    6.7367 N   0  0  0  0  0  0  0  0  0  0  0  0
   -1.2351   27.0025    5.8881 C   0  0  0  0  0  0  0  0  0  0  0  0
    0.8978   26.7219    3.4076 C   0  0  0  0  0  0  0  0  0  0  0  0
    0.1336   25.6945    4.2231 C   0  0  0  0  0  0  0  0  0  0  0  0
   -4.7583   29.7431    7.1758 C   0  0  0  0  0  0  0  0  0  0  0  0
   -5.0964   30.2763    8.6130 C   0  0  0  0  0  0  0  0  0  0  0  0
   -5.9237   31.5864    8.5036 C   0  0  0  0  0  0  0  0  0  0  0  0
   -5.1088   32.7045    8.1178 O   0  0  0  0  0  0  0  0  0  0  0  0
   -4.1129   32.9333    9.1232 C   0  0  0  0  0  0  0  0  0  0  0  0
   -3.1741   31.7205    9.2535 C   0  0  0  0  0  0  0  0  0  0  0  0
   -2.1851   31.9340   10.3979 C   0  0  0  0  0  0  0  0  0  0  0  0
   -3.8889   30.4488    9.4853 N   0  0  0  0  0  0  0  0  0  0  0  0
   -3.2372   29.6877    9.2836 H   0  0  0  0  0  0  0  0  0  0  0  0
   -5.9803   29.2035    9.3114 C   0  0  0  0  0  0  0  0  0  0  0  0
   -5.2050   28.3027   10.0973 O   0  0  0  0  0  0  0  0  0  0  0  0
   -5.8247   27.6564   10.4805 H   0  0  0  0  0  0  0  0  0  0  0  0
 12 13  1  0  0  0
 13  3  1  0  0  0
  3  4  1  0  0  0
  4  5  2  0  0  0
  5  6  1  0  0  0
  6  7  2  0  0  0
  7  1  1  0  0  0
  1 14  1  0  0  0
 15 14  1  0  0  0
 15 23  1  0  0  0
 23 24  1  0  0  0
 15 16  1  0  0  0
 16 17  1  0  0  0
 17 18  1  0  0  0
 18 19  1  0  0  0
 19 20  1  0  0  0
 19 21  1  0  0  0
  7  8  1  0  0  0
  8  9  2  0  0  0
  9 10  1  0  0  0
 10 11  2  0  0  0
 11  3  1  0  0  0
 11  6  1  0  0  0
 21 15  1  0  0  0
  1  2  1  0  0  0
 24 25  1  0  0  0
 21 22  1  0  0  0
M  END
> <minimizedAffinity>
-7.97199

$$$$
OCNT-2309634


 32 36  0  0  0  0  0  0  0  0999 V2000
   -4.4669   29.4930    6.3175 N   0  0  0  0  0  0  0  0  0  0  0  0
   -3.7097   28.3404    6.2890 C   0  0  0  0  0  0  0  0  0  0  0  0
   -2.6151   28.2075    6.8294 O   0  0  0  0  0  0  0  0  0  0  0  0
   -4.2939   27.3122    5.5336 N   0  0  0  0  0  0  0  0  0  0  0  0
   -5.7418   27.1011    5.5824 C   0  0  0  0  0  0  0  0  0  0  0  0
   -6.1902   26.0333    4.6344 C   0  0  0  0  0  0  0  0  0  0  0  0
   -5.3606   25.2304    3.9481 C   0  0  0  0  0  0  0  0  0  0  0  0
   -3.8682   25.3318    4.1014 C   0  0  0  0  0  0  0  0  0  0  0  0
   -3.4886   26.1018    5.3668 C   0  0  0  0  0  0  0  0  0  0  0  0
   -5.0617   29.6162    5.5131 H   0  0  0  0  0  0  0  0  0  0  0  0
   -2.2111   31.7569   10.1370 C   0  0  0  0  0  0  0  0  0  0  0  0
   -3.1807   31.8194    8.9903 C   0  0  0  0  0  0  0  0  0  0  0  0
   -3.9238   32.9689    8.6501 C   0  0  0  0  0  0  0  0  0  0  0  0
   -4.0470   34.2899    9.1436 C   0  0  0  0  0  0  0  0  0  0  0  0
   -4.9181   35.0267    8.4496 N   0  0  0  0  0  0  0  0  0  0  0  0
   -5.3549   34.1778    7.5041 N   0  0  0  0  0  0  0  0  0  0  0  0
   -4.8007   32.9258    7.5726 C   0  0  0  0  0  0  0  0  0  0  0  0
   -4.9939   31.7833    6.7879 C   0  0  0  0  0  0  0  0  0  0  0  0
   -4.2493   30.6397    7.1102 C   0  0  0  0  0  0  0  0  0  0  0  0
   -3.3696   30.6636    8.1971 C   0  0  0  0  0  0  0  0  0  0  0  0
   -6.0364   34.5169    6.8350 H   0  0  0  0  0  0  0  0  0  0  0  0
   -5.8064   24.2382    3.0263 C   0  0  0  0  0  0  0  0  0  0  0  0
   -5.5060   24.2164    1.6774 C   0  0  0  0  0  0  0  0  0  0  0  0
   -4.7018   25.1321    0.8291 C   0  0  0  0  0  0  0  0  0  0  0  0
   -6.1254   23.1086    1.1482 N   0  0  0  0  0  0  0  0  0  0  0  0
   -6.8044   22.4149    2.1238 C   0  0  0  0  0  0  0  0  0  0  0  0
   -7.5620   21.2405    2.0345 C   0  0  0  0  0  0  0  0  0  0  0  0
   -8.1481   20.7566    3.2084 C   0  0  0  0  0  0  0  0  0  0  0  0
   -7.9826   21.4219    4.4210 C   0  0  0  0  0  0  0  0  0  0  0  0
   -7.2214   22.5941    4.4921 C   0  0  0  0  0  0  0  0  0  0  0  0
   -6.6189   23.1032    3.3224 C   0  0  0  0  0  0  0  0  0  0  0  0
   -6.0910   22.8332    0.1767 H   0  0  0  0  0  0  0  0  0  0  0  0
 11 12  1  0  0  0
 12 13  2  0  0  0
 13 14  1  0  0  0
 14 15  2  0  0  0
 15 16  1  0  0  0
 16 17  1  0  0  0
 17 18  2  0  0  0
 18 19  1  0  0  0
 19  1  1  0  0  0
  1  2  1  0  0  0
  2  3  2  0  0  0
  2  4  1  0  0  0
  4  5  1  0  0  0
  5  6  1  0  0  0
  6  7  2  0  0  0
  7 22  1  0  0  0
 22 23  2  0  0  0
 23 24  1  0  0  0
 23 25  1  0  0  0
 25 26  1  0  0  0
 26 27  2  0  0  0
 27 28  1  0  0  0
 28 29  2  0  0  0
 29 30  1  0  0  0
 30 31  2  0  0  0
  7  8  1  0  0  0
  8  9  1  0  0  0
 19 20  2  0  0  0
 20 12  1  0  0  0
 17 13  1  0  0  0
  9  4  1  0  0  0
 31 22  1  0  0  0
 31 26  1  0  0  0
 16 21  1  0  0  0
  1 10  1  0  0  0
 25 32  1  0  0  0
M  END
> <minimizedAffinity>
-10.23846

$$$$
OCNT-2309641


 30 33  0  0  0  0  0  0  0  0999 V2000
   -0.2777   26.3906    5.2953 C   0  0  0  0  0  0  0  0  0  0  0  0
   -1.7521   26.4782    5.1442 C   0  0  0  0  0  0  0  0  0  0  0  0
   -2.3357   25.9431    4.0697 N   0  0  0  0  0  0  0  0  0  0  0  0
   -3.6686   26.0524    4.3013 N   0  0  0  0  0  0  0  0  0  0  0  0
   -3.9155   26.9205    5.3571 C   0  0  0  0  0  0  0  0  0  0  0  0
   -5.2288   27.5548    5.6539 C   0  0  0  0  0  0  0  0  0  0  0  0
   -2.6944   27.1161    5.9907 C   0  0  0  0  0  0  0  0  0  0  0  0
   -4.5693   25.4067    3.4130 C   0  0  0  0  0  0  0  0  0  0  0  0
   -4.4398   25.6959    2.0401 C   0  0  0  0  0  0  0  0  0  0  0  0
   -5.3131   25.1311    1.1091 C   0  0  0  0  0  0  0  0  0  0  0  0
   -6.3034   24.2555    1.5400 C   0  0  0  0  0  0  0  0  0  0  0  0
   -7.3829   23.5579    0.3968 Cl  0  0  0  0  0  0  0  0  0  0  0  0
   -6.4113   23.9197    2.8878 C   0  0  0  0  0  0  0  0  0  0  0  0
   -5.5358   24.4800    3.8283 C   0  0  0  0  0  0  0  0  0  0  0  0
   -5.6234   23.8195    5.4242 Cl  0  0  0  0  0  0  0  0  0  0  0  0
   -2.4156   27.9129    7.2308 C   0  0  0  0  0  0  0  0  0  0  0  0
   -2.3078   29.4107    6.9959 C   0  0  0  0  0  0  0  0  0  0  0  0
   -1.3867   29.8912    6.3251 O   0  0  0  0  0  0  0  0  0  0  0  0
   -3.2750   30.2453    7.5315 N   0  0  0  0  0  0  0  0  0  0  0  0
   -3.1865   31.6881    7.2629 C   0  0  0  0  0  0  0  0  0  0  0  0
   -4.4786   32.3403    7.7680 C   0  0  0  0  0  0  0  0  0  0  0  0
   -5.0582   31.2223    8.5952 C   0  0  0  0  0  0  0  0  0  0  0  0
   -6.1768   31.2901    9.4184 C   0  0  0  0  0  0  0  0  0  0  0  0
   -6.5945   30.1353   10.0734 C   0  0  0  0  0  0  0  0  0  0  0  0
   -5.8975   28.9360    9.8950 C   0  0  0  0  0  0  0  0  0  0  0  0
   -4.7749   28.8744    9.0588 C   0  0  0  0  0  0  0  0  0  0  0  0
   -4.3584   30.0225    8.4035 C   0  0  0  0  0  0  0  0  0  0  0  0
   -4.1992   33.6326    8.5317 C   0  0  0  0  0  0  0  0  0  0  0  0
   -5.1310   34.6523    8.1788 O   0  0  0  0  0  0  0  0  0  0  0  0
   -5.0110   34.8510    7.2341 H   0  0  0  0  0  0  0  0  0  0  0  0
  1  2  1  0  0  0
  2  3  2  0  0  0
  3  4  1  0  0  0
  4  8  1  0  0  0
  8  9  1  0  0  0
  9 10  2  0  0  0
 10 11  1  0  0  0
 11 12  1  0  0  0
 11 13  2  0  0  0
 13 14  1  0  0  0
 14 15  1  0  0  0
  4  5  1  0  0  0
  5  6  1  0  0  0
  5  7  2  0  0  0
  7 16  1  0  0  0
 16 17  1  0  0  0
 17 18  2  0  0  0
 17 19  1  0  0  0
 19 20  1  0  0  0
 20 21  1  0  0  0
 21 28  1  0  0  0
 28 29  1  0  0  0
 21 22  1  0  0  0
 22 23  2  0  0  0
 23 24  1  0  0  0
 24 25  2  0  0  0
 25 26  1  0  0  0
 26 27  2  0  0  0
  7  2  1  0  0  0
 27 19  1  0  0  0
 14  8  2  0  0  0
 27 22  1  0  0  0
 29 30  1  0  0  0
M  END
> <minimizedAffinity>
-10.04308

$$$$
OCNT-2309646


 24 25  0  0  0  0  0  0  0  0999 V2000
   -2.1374   28.8490    8.3150 C   0  0  0  0  0  0  0  0  0  0  0  0
   -0.6041   28.7702    8.3877 C   0  0  0  0  0  0  0  0  0  0  0  0
   -0.1680   27.9886    7.1384 C   0  0  0  0  0  0  0  0  0  0  0  0
    0.5009   28.9178    6.1178 C   0  0  0  0  0  0  0  0  0  0  0  0
   -1.4087   27.3235    6.7003 N   0  0  0  0  0  0  0  0  0  0  0  0
   -2.4797   28.3075    6.9242 C   0  0  0  0  0  0  0  0  0  0  0  0
   -3.7807   32.7650    9.1929 C   0  0  0  0  0  0  0  0  0  0  0  0
   -2.6411   32.3080    9.8513 C   0  0  0  0  0  0  0  0  0  0  0  0
   -2.1175   31.0425    9.5586 C   0  0  0  0  0  0  0  0  0  0  0  0
   -2.7218   30.2127    8.6034 C   0  0  0  0  0  0  0  0  0  0  0  0
   -3.8679   30.6818    7.9486 C   0  0  0  0  0  0  0  0  0  0  0  0
   -4.3889   31.9449    8.2420 C   0  0  0  0  0  0  0  0  0  0  0  0
   -4.9844   34.5795    8.2410 C   0  0  0  0  0  0  0  0  0  0  0  0
   -4.3923   33.9730    9.3826 O   0  0  0  0  0  0  0  0  0  0  0  0
   -1.3788   26.8258    5.3092 C   0  0  0  0  0  0  0  0  0  0  0  0
   -2.7530   26.3037    4.8660 C   0  0  0  0  0  0  0  0  0  0  0  0
   -3.4072   25.5105    5.5363 O   0  0  0  0  0  0  0  0  0  0  0  0
   -3.2167   26.8432    3.6874 N   0  0  0  0  0  0  0  0  0  0  0  0
   -2.6377   27.5786    3.2870 H   0  0  0  0  0  0  0  0  0  0  0  0
   -4.5841   26.6325    3.2281 C   0  0  0  0  0  0  0  0  0  0  0  0
   -5.6189   27.5933    3.8178 C   0  0  0  0  0  0  0  0  0  0  0  0
   -5.0785   28.4916    4.6651 F   0  0  0  0  0  0  0  0  0  0  0  0
   -6.2456   28.2815    2.8325 F   0  0  0  0  0  0  0  0  0  0  0  0
   -6.5712   26.9090    4.4943 F   0  0  0  0  0  0  0  0  0  0  0  0
 13 14  1  0  0  0
 14  7  1  0  0  0
  7  8  1  0  0  0
  8  9  2  0  0  0
  9 10  1  0  0  0
 10  1  1  0  0  0
  1  2  1  0  0  0
  2  3  1  0  0  0
  3  4  1  0  0  0
  3  5  1  0  0  0
  5 15  1  0  0  0
 15 16  1  0  0  0
 16 17  2  0  0  0
 16 18  1  0  0  0
 18 20  1  0  0  0
 20 21  1  0  0  0
 21 22  1  0  0  0
 21 23  1  0  0  0
 21 24  1  0  0  0
  5  6  1  0  0  0
 10 11  2  0  0  0
 11 12  1  0  0  0
 12  7  2  0  0  0
  6  1  1  0  0  0
 18 19  1  0  0  0
M  END
> <minimizedAffinity>
-8.20383

$$$$
OCNT-2309655


 29 31  0  0  0  0  0  0  0  0999 V2000
   -5.4496   30.7187    6.6093 N   0  0  0  0  0  0  0  0  0  0  0  0
   -5.1369   31.0740    7.8946 C   0  0  0  0  0  0  0  0  0  0  0  0
   -5.8178   30.7115    8.8517 O   0  0  0  0  0  0  0  0  0  0  0  0
   -3.9929   31.8482    8.0315 N   0  0  0  0  0  0  0  0  0  0  0  0
   -3.6386   32.2793    9.3739 C   0  0  0  0  0  0  0  0  0  0  0  0
   -5.2081   31.3915    5.8997 H   0  0  0  0  0  0  0  0  0  0  0  0
   -6.6434   29.9495    6.3277 C   0  0  0  0  0  0  0  0  0  0  0  0
   -6.0575   27.3185    3.8729 N   0  0  0  0  0  0  0  0  0  0  0  0
   -6.2974   27.6511    5.1840 C   0  0  0  0  0  0  0  0  0  0  0  0
   -6.3762   29.0263    5.1973 C   0  0  0  0  0  0  0  0  0  0  0  0
   -6.1868   29.4945    3.9277 N   0  0  0  0  0  0  0  0  0  0  0  0
   -5.9900   28.4534    3.1302 N   0  0  0  0  0  0  0  0  0  0  0  0
   -5.5708   23.4689    2.1810 C   0  0  0  0  0  0  0  0  0  0  0  0
   -5.5627   24.5977    1.3620 C   0  0  0  0  0  0  0  0  0  0  0  0
   -5.7225   25.8767    1.9139 C   0  0  0  0  0  0  0  0  0  0  0  0
   -5.8915   26.0330    3.2961 C   0  0  0  0  0  0  0  0  0  0  0  0
   -5.8973   24.8985    4.1183 C   0  0  0  0  0  0  0  0  0  0  0  0
   -5.7376   23.6277    3.5584 C   0  0  0  0  0  0  0  0  0  0  0  0
   -5.4721   21.1683    2.7733 C   0  0  0  0  0  0  0  0  0  0  0  0
   -5.4256   22.1736    1.7687 O   0  0  0  0  0  0  0  0  0  0  0  0
   -2.9833   32.0504    6.9807 C   0  0  0  0  0  0  0  0  0  0  0  0
   -1.6262   31.3969    7.2745 C   0  0  0  0  0  0  0  0  0  0  0  0
   -1.4032   30.0230    6.6017 C   0  0  0  0  0  0  0  0  0  0  0  0
    0.1044   29.7300    6.4684 C   0  0  0  0  0  0  0  0  0  0  0  0
    0.7879   29.4970    7.8137 C   0  0  0  0  0  0  0  0  0  0  0  0
   -0.1001   28.7251    8.7860 C   0  0  0  0  0  0  0  0  0  0  0  0
   -1.2520   28.0261    8.0703 C   0  0  0  0  0  0  0  0  0  0  0  0
   -2.1241   28.9782    7.3639 N   0  0  0  0  0  0  0  0  0  0  0  0
   -3.0725   28.2457    6.5231 C   0  0  0  0  0  0  0  0  0  0  0  0
 19 20  1  0  0  0
 20 13  1  0  0  0
 13 14  1  0  0  0
 14 15  2  0  0  0
 15 16  1  0  0  0
 16  8  1  0  0  0
  8  9  1  0  0  0
  9 10  2  0  0  0
 10  7  1  0  0  0
  7  1  1  0  0  0
  1  2  1  0  0  0
  2  3  2  0  0  0
  2  4  1  0  0  0
  4  5  1  0  0  0
  4 21  1  0  0  0
 21 22  1  0  0  0
 22 23  1  0  0  0
 23 24  1  0  0  0
 24 25  1  0  0  0
 25 26  1  0  0  0
 26 27  1  0  0  0
 27 28  1  0  0  0
 28 29  1  0  0  0
 10 11  1  0  0  0
 11 12  2  0  0  0
 16 17  2  0  0  0
 17 18  1  0  0  0
 18 13  2  0  0  0
 12  8  1  0  0  0
 28 23  1  0  0  0
  1  6  1  0  0  0
M  END
> <minimizedAffinity>
-8.73358

$$$$
OCNT-2309661


 26 28  0  0  0  0  0  0  0  0999 V2000
   -1.6268   27.8131    7.6522 N   0  0  0  0  0  0  0  0  0  0  0  0
   -1.2646   27.3423    6.4090 C   0  0  0  0  0  0  0  0  0  0  0  0
   -0.1985   27.6404    5.8688 O   0  0  0  0  0  0  0  0  0  0  0  0
   -2.4919   27.4840    8.0671 H   0  0  0  0  0  0  0  0  0  0  0  0
   -0.7937   28.7070    8.4190 C   0  0  0  0  0  0  0  0  0  0  0  0
   -3.6940   31.0700    9.1682 C   0  0  0  0  0  0  0  0  0  0  0  0
   -3.0129   32.2508    9.4802 C   0  0  0  0  0  0  0  0  0  0  0  0
   -1.6169   32.2822    9.4565 C   0  0  0  0  0  0  0  0  0  0  0  0
   -0.8973   31.1348    9.1215 C   0  0  0  0  0  0  0  0  0  0  0  0
   -1.5667   29.9390    8.8145 C   0  0  0  0  0  0  0  0  0  0  0  0
   -2.9714   29.9185    8.8341 C   0  0  0  0  0  0  0  0  0  0  0  0
   -6.2915   31.0177    9.1899 N   0  0  0  0  0  0  0  0  0  0  0  0
   -5.1285   31.0415    9.1838 C   0  0  0  0  0  0  0  0  0  0  0  0
   -2.2277   26.3548    5.7636 C   0  0  0  0  0  0  0  0  0  0  0  0
   -1.8100   25.9355    4.0450 S   0  0  0  0  0  0  0  0  0  0  0  0
   -3.3933   25.9438    3.3229 C   0  0  0  0  0  0  0  0  0  0  0  0
   -4.2466   26.9343    3.4923 N   0  0  0  0  0  0  0  0  0  0  0  0
   -5.3279   26.5727    2.7275 C   0  0  0  0  0  0  0  0  0  0  0  0
   -5.0920   25.3661    2.1065 C   0  0  0  0  0  0  0  0  0  0  0  0
   -3.8494   24.9471    2.5062 O   0  0  0  0  0  0  0  0  0  0  0  0
   -5.8218   24.5001    1.1920 C   0  0  0  0  0  0  0  0  0  0  0  0
   -6.6217   25.0500    0.1773 C   0  0  0  0  0  0  0  0  0  0  0  0
   -7.3371   24.2257   -0.6979 C   0  0  0  0  0  0  0  0  0  0  0  0
   -7.2627   22.8397   -0.5713 C   0  0  0  0  0  0  0  0  0  0  0  0
   -6.4665   22.2778    0.4237 C   0  0  0  0  0  0  0  0  0  0  0  0
   -5.7493   23.1008    1.2974 C   0  0  0  0  0  0  0  0  0  0  0  0
 12 13  3  0  0  0
 13  6  1  0  0  0
  6  7  1  0  0  0
  7  8  2  0  0  0
  8  9  1  0  0  0
  9 10  2  0  0  0
 10  5  1  0  0  0
  5  1  1  0  0  0
  1  2  1  0  0  0
  2  3  2  0  0  0
  2 14  1  0  0  0
 14 15  1  0  0  0
 15 16  1  0  0  0
 16 17  2  0  0  0
 17 18  1  0  0  0
 18 19  2  0  0  0
 19 21  1  0  0  0
 21 22  2  0  0  0
 22 23  1  0  0  0
 23 24  2  0  0  0
 24 25  1  0  0  0
 25 26  2  0  0  0
 19 20  1  0  0  0
 10 11  1  0  0  0
 11  6  2  0  0  0
 20 16  1  0  0  0
 26 21  1  0  0  0
  1  4  1  0  0  0
M  END
> <minimizedAffinity>
-9.68096

$$$$
OCNT-2309665


 26 29  0  0  0  0  0  0  0  0999 V2000
   -5.2843   28.3889    5.2692 N   0  0  0  0  0  0  0  0  0  0  0  0
   -4.3604   28.6145    6.2629 C   0  0  0  0  0  0  0  0  0  0  0  0
   -3.3876   27.9087    6.4973 O   0  0  0  0  0  0  0  0  0  0  0  0
   -5.9935   29.0747    5.0698 H   0  0  0  0  0  0  0  0  0  0  0  0
   -5.8925   21.8475    1.6247 C   0  0  0  0  0  0  0  0  0  0  0  0
   -5.5035   23.2289    2.0705 C   0  0  0  0  0  0  0  0  0  0  0  0
   -4.6236   23.9914    1.2979 C   0  0  0  0  0  0  0  0  0  0  0  0
   -4.2753   25.2924    1.6784 C   0  0  0  0  0  0  0  0  0  0  0  0
   -4.8204   25.8501    2.8506 C   0  0  0  0  0  0  0  0  0  0  0  0
   -4.5677   27.1199    3.3412 N   0  0  0  0  0  0  0  0  0  0  0  0
   -5.2385   27.2997    4.4466 C   0  0  0  0  0  0  0  0  0  0  0  0
   -6.2041   25.9992    4.9803 S   0  0  0  0  0  0  0  0  0  0  0  0
   -5.7039   25.0799    3.6104 C   0  0  0  0  0  0  0  0  0  0  0  0
   -6.0658   23.7742    3.2361 C   0  0  0  0  0  0  0  0  0  0  0  0
   -4.6288   29.8355    7.0204 C   0  0  0  0  0  0  0  0  0  0  0  0
   -5.7247   30.1340    7.8264 C   0  0  0  0  0  0  0  0  0  0  0  0
   -5.5612   31.4331    8.3550 C   0  0  0  0  0  0  0  0  0  0  0  0
   -4.3705   31.9143    7.8722 C   0  0  0  0  0  0  0  0  0  0  0  0
   -3.7882   30.9379    7.0924 N   0  0  0  0  0  0  0  0  0  0  0  0
   -2.5262   31.1415    6.3797 C   0  0  0  0  0  0  0  0  0  0  0  0
   -1.3578   30.5363    7.1153 C   0  0  0  0  0  0  0  0  0  0  0  0
   -0.4147   29.7526    6.4412 C   0  0  0  0  0  0  0  0  0  0  0  0
    0.6458   29.2184    7.1582 C   0  0  0  0  0  0  0  0  0  0  0  0
    0.8318   29.4096    8.4802 N   0  0  0  0  0  0  0  0  0  0  0  0
   -0.0871   30.1690    9.1144 C   0  0  0  0  0  0  0  0  0  0  0  0
   -1.1816   30.7434    8.4865 C   0  0  0  0  0  0  0  0  0  0  0  0
  5  6  1  0  0  0
  6  7  2  0  0  0
  7  8  1  0  0  0
  8  9  2  0  0  0
  9 10  1  0  0  0
 10 11  2  0  0  0
 11  1  1  0  0  0
  1  2  1  0  0  0
  2  3  2  0  0  0
  2 15  1  0  0  0
 15 16  2  0  0  0
 16 17  1  0  0  0
 17 18  2  0  0  0
 18 19  1  0  0  0
 19 20  1  0  0  0
 20 21  1  0  0  0
 21 22  2  0  0  0
 22 23  1  0  0  0
 23 24  2  0  0  0
 24 25  1  0  0  0
 25 26  2  0  0  0
 11 12  1  0  0  0
 12 13  1  0  0  0
 13 14  2  0  0  0
 14  6  1  0  0  0
 13  9  1  0  0  0
 19 15  1  0  0  0
 26 21  1  0  0  0
  1  4  1  0  0  0
M  END
> <minimizedAffinity>
-9.03163

$$$$
OCNT-2309670


 33 37  0  0  0  0  0  0  0  0999 V2000
   -5.9413   26.0460    1.4102 O   0  0  0  0  0  0  0  0  0  0  0  0
   -5.7134   25.6720    2.5577 C   0  0  0  0  0  0  0  0  0  0  0  0
   -5.5862   26.5441    3.6316 N   0  0  0  0  0  0  0  0  0  0  0  0
   -5.8407   27.9673    3.3987 C   0  0  0  0  0  0  0  0  0  0  0  0
   -6.0781   28.7361    4.7062 C   0  0  0  0  0  0  0  0  0  0  0  0
   -4.9197   28.6146    5.6227 N   0  0  0  0  0  0  0  0  0  0  0  0
   -4.1827   27.3339    5.5494 C   0  0  0  0  0  0  0  0  0  0  0  0
   -5.0260   26.1945    4.9433 C   0  0  0  0  0  0  0  0  0  0  0  0
   -4.9744   29.2921    6.8152 C   0  0  0  0  0  0  0  0  0  0  0  0
   -6.0108   29.1984    7.6673 N   0  0  0  0  0  0  0  0  0  0  0  0
   -5.5564   30.0873    8.8603 S   0  0  0  0  0  0  0  0  0  0  0  0
   -5.3479   29.1172   10.1372 O   0  0  0  0  0  0  0  0  0  0  0  0
   -6.7178   31.0631    9.3895 O   0  0  0  0  0  0  0  0  0  0  0  0
   -4.1616   30.8117    8.5120 C   0  0  0  0  0  0  0  0  0  0  0  0
   -3.3282   31.7456    9.1404 C   0  0  0  0  0  0  0  0  0  0  0  0
   -2.1700   32.1462    8.4710 C   0  0  0  0  0  0  0  0  0  0  0  0
   -1.8625   31.6395    7.2127 C   0  0  0  0  0  0  0  0  0  0  0  0
   -2.7035   30.7094    6.5887 C   0  0  0  0  0  0  0  0  0  0  0  0
   -3.8821   30.2586    7.2386 C   0  0  0  0  0  0  0  0  0  0  0  0
   -5.5752   24.2202    2.8004 C   0  0  0  0  0  0  0  0  0  0  0  0
   -4.3432   23.5853    2.6264 C   0  0  0  0  0  0  0  0  0  0  0  0
   -4.2396   22.2201    2.8757 C   0  0  0  0  0  0  0  0  0  0  0  0
   -5.3606   21.5038    3.3086 C   0  0  0  0  0  0  0  0  0  0  0  0
   -6.6007   22.1337    3.5052 C   0  0  0  0  0  0  0  0  0  0  0  0
   -6.6900   23.5060    3.2539 C   0  0  0  0  0  0  0  0  0  0  0  0
   -7.6807   21.3735    3.9854 N   0  0  0  0  0  0  0  0  0  0  0  0
   -7.7921   20.4731    3.5333 H   0  0  0  0  0  0  0  0  0  0  0  0
   -8.5700   21.5717    5.0577 C   0  0  0  0  0  0  0  0  0  0  0  0
   -8.0542   22.0033    6.2894 C   0  0  0  0  0  0  0  0  0  0  0  0
   -8.8845   22.1771    7.4006 C   0  0  0  0  0  0  0  0  0  0  0  0
  -10.2474   21.9147    7.2978 C   0  0  0  0  0  0  0  0  0  0  0  0
  -10.7760   21.4793    6.0860 C   0  0  0  0  0  0  0  0  0  0  0  0
   -9.9413   21.3060    4.9773 C   0  0  0  0  0  0  0  0  0  0  0  0
  1  2  2  0  0  0
  2 20  1  0  0  0
 20 21  1  0  0  0
 21 22  2  0  0  0
 22 23  1  0  0  0
 23 24  2  0  0  0
 24 26  1  0  0  0
 26 28  1  0  0  0
 28 29  2  0  0  0
 29 30  1  0  0  0
 30 31  2  0  0  0
 31 32  1  0  0  0
 32 33  2  0  0  0
 24 25  1  0  0  0
  2  3  1  0  0  0
  3  4  1  0  0  0
  4  5  1  0  0  0
  5  6  1  0  0  0
  6  9  1  0  0  0
  9 10  2  0  0  0
 10 11  1  0  0  0
 11 12  2  0  0  0
 11 13  2  0  0  0
 11 14  1  0  0  0
 14 15  2  0  0  0
 15 16  1  0  0  0
 16 17  2  0  0  0
 17 18  1  0  0  0
 18 19  2  0  0  0
  6  7  1  0  0  0
  7  8  1  0  0  0
 25 20  2  0  0  0
  8  3  1  0  0  0
 33 28  1  0  0  0
 19  9  1  0  0  0
 19 14  1  0  0  0
 26 27  1  0  0  0
M  END
> <minimizedAffinity>
-11.14072

$$$$
OCNT-2309676


 27 29  0  0  0  0  0  0  0  0999 V2000
   -5.3974   28.2821    5.2139 N   0  0  0  0  0  0  0  0  0  0  0  0
   -6.2050   28.8613    6.1817 C   0  0  0  0  0  0  0  0  0  0  0  0
   -7.3020   28.4467    6.5425 O   0  0  0  0  0  0  0  0  0  0  0  0
   -4.5324   28.7637    4.9953 H   0  0  0  0  0  0  0  0  0  0  0  0
   -6.3097   23.7147    1.8447 C   0  0  0  0  0  0  0  0  0  0  0  0
   -6.1054   24.8482    2.8172 C   0  0  0  0  0  0  0  0  0  0  0  0
   -5.6271   26.0598    2.2843 C   0  0  0  0  0  0  0  0  0  0  0  0
   -5.4031   27.1746    3.0931 C   0  0  0  0  0  0  0  0  0  0  0  0
   -5.6502   27.1145    4.4625 C   0  0  0  0  0  0  0  0  0  0  0  0
   -6.1236   25.9182    5.0081 C   0  0  0  0  0  0  0  0  0  0  0  0
   -6.3585   24.7769    4.2072 C   0  0  0  0  0  0  0  0  0  0  0  0
   -6.8441   23.5956    4.8458 N   0  0  0  0  0  0  0  0  0  0  0  0
   -8.0750   22.9858    4.7323 C   0  0  0  0  0  0  0  0  0  0  0  0
   -8.1137   21.9170    5.4947 N   0  0  0  0  0  0  0  0  0  0  0  0
   -6.8903   21.8506    6.0967 N   0  0  0  0  0  0  0  0  0  0  0  0
   -6.1174   22.8552    5.7137 N   0  0  0  0  0  0  0  0  0  0  0  0
   -5.5703   30.1053    6.8031 C   0  0  0  0  0  0  0  0  0  0  0  0
   -6.5452   30.8313    7.7347 C   0  0  0  0  0  0  0  0  0  0  0  0
   -5.8502   32.0040    8.4159 C   0  0  0  0  0  0  0  0  0  0  0  0
   -4.5730   31.5528    9.1235 C   0  0  0  0  0  0  0  0  0  0  0  0
   -3.6526   30.8757    8.1934 N   0  0  0  0  0  0  0  0  0  0  0  0
   -4.2964   29.7077    7.5667 C   0  0  0  0  0  0  0  0  0  0  0  0
   -2.3982   30.5015    8.9118 C   0  0  0  0  0  0  0  0  0  0  0  0
   -1.4455   31.6232    9.3746 C   0  0  0  0  0  0  0  0  0  0  0  0
   -1.4461   32.6647    8.5108 F   0  0  0  0  0  0  0  0  0  0  0  0
   -1.7751   32.0978   10.5958 F   0  0  0  0  0  0  0  0  0  0  0  0
   -0.1740   31.1636    9.4446 F   0  0  0  0  0  0  0  0  0  0  0  0
  5  6  1  0  0  0
  6  7  1  0  0  0
  7  8  2  0  0  0
  8  9  1  0  0  0
  9  1  1  0  0  0
  1  2  1  0  0  0
  2  3  2  0  0  0
  2 17  1  0  0  0
 17 18  1  0  0  0
 18 19  1  0  0  0
 19 20  1  0  0  0
 20 21  1  0  0  0
 21 23  1  0  0  0
 23 24  1  0  0  0
 24 25  1  0  0  0
 24 26  1  0  0  0
 24 27  1  0  0  0
 21 22  1  0  0  0
  9 10  2  0  0  0
 10 11  1  0  0  0
 11 12  1  0  0  0
 12 13  1  0  0  0
 13 14  2  0  0  0
 14 15  1  0  0  0
 15 16  2  0  0  0
 11  6  2  0  0  0
 16 12  1  0  0  0
 22 17  1  0  0  0
  1  4  1  0  0  0
M  END
> <minimizedAffinity>
-9.07834

$$$$
OCNT-2309692


 36 39  0  0  0  0  0  0  0  0999 V2000
   -4.5243   25.9367    4.0209 N   0  0  0  0  0  0  0  0  0  0  0  0
   -3.4749   25.4806    3.3038 C   0  0  0  0  0  0  0  0  0  0  0  0
   -2.4669   26.1114    3.0275 O   0  0  0  0  0  0  0  0  0  0  0  0
   -3.7412   24.2117    2.8757 N   0  0  0  0  0  0  0  0  0  0  0  0
   -5.1220   23.7964    3.1424 C   0  0  0  0  0  0  0  0  0  0  0  0
   -5.5469   25.0290    3.9960 C   0  0  0  0  0  0  0  0  0  0  0  0
   -6.6222   25.1914    4.5588 O   0  0  0  0  0  0  0  0  0  0  0  0
   -3.1375   23.7880    2.1845 H   0  0  0  0  0  0  0  0  0  0  0  0
   -5.8575   23.6527    1.8083 C   0  0  0  0  0  0  0  0  0  0  0  0
   -6.1303   22.4021    1.2303 C   0  0  0  0  0  0  0  0  0  0  0  0
   -6.7964   22.3043    0.0052 C   0  0  0  0  0  0  0  0  0  0  0  0
   -7.1965   23.4526   -0.6707 C   0  0  0  0  0  0  0  0  0  0  0  0
   -6.9254   24.7029   -0.1266 C   0  0  0  0  0  0  0  0  0  0  0  0
   -6.2598   24.8028    1.0972 C   0  0  0  0  0  0  0  0  0  0  0  0
   -4.5858   27.2424    4.6457 C   0  0  0  0  0  0  0  0  0  0  0  0
   -3.1784   28.6984    6.0057 N   0  0  0  0  0  0  0  0  0  0  0  0
   -3.5078   27.3803    5.7247 C   0  0  0  0  0  0  0  0  0  0  0  0
   -2.9769   26.3848    6.2090 O   0  0  0  0  0  0  0  0  0  0  0  0
   -3.6678   29.4164    5.4688 H   0  0  0  0  0  0  0  0  0  0  0  0
   -1.7824   30.7925    8.7157 C   0  0  0  0  0  0  0  0  0  0  0  0
   -0.5109   30.2361    8.8902 C   0  0  0  0  0  0  0  0  0  0  0  0
   -0.1115   29.1578    8.1020 C   0  0  0  0  0  0  0  0  0  0  0  0
   -0.9755   28.6298    7.1377 C   0  0  0  0  0  0  0  0  0  0  0  0
   -2.2466   29.1742    6.9504 C   0  0  0  0  0  0  0  0  0  0  0  0
   -2.6443   30.2566    7.7460 C   0  0  0  0  0  0  0  0  0  0  0  0
   -2.2674   31.9442    9.5239 C   0  0  0  0  0  0  0  0  0  0  0  0
   -2.0821   32.0490   10.7261 O   0  0  0  0  0  0  0  0  0  0  0  0
   -4.1437   33.3191    9.3196 C   0  0  0  0  0  0  0  0  0  0  0  0
   -2.9298   32.8342    8.7439 O   0  0  0  0  0  0  0  0  0  0  0  0
   -5.1092   22.5098    4.0037 C   0  0  0  0  0  0  0  0  0  0  0  0
   -6.2871   22.2950    4.9286 C   0  0  0  0  0  0  0  0  0  0  0  0
   -7.5683   22.0588    4.4095 C   0  0  0  0  0  0  0  0  0  0  0  0
   -8.6564   21.8623    5.2618 C   0  0  0  0  0  0  0  0  0  0  0  0
   -8.4768   21.8949    6.6421 C   0  0  0  0  0  0  0  0  0  0  0  0
   -7.2088   22.1241    7.1705 C   0  0  0  0  0  0  0  0  0  0  0  0
   -6.1198   22.3210    6.3194 C   0  0  0  0  0  0  0  0  0  0  0  0
 28 29  1  0  0  0
 29 26  1  0  0  0
 26 27  2  0  0  0
 26 20  1  0  0  0
 20 21  1  0  0  0
 21 22  2  0  0  0
 22 23  1  0  0  0
 23 24  2  0  0  0
 24 16  1  0  0  0
 16 17  1  0  0  0
 17 18  2  0  0  0
 17 15  1  0  0  0
 15  1  1  0  0  0
  1  2  1  0  0  0
  2  3  2  0  0  0
  2  4  1  0  0  0
  4  5  1  0  0  0
  5 30  1  0  0  0
 30 31  1  0  0  0
 31 32  2  0  0  0
 32 33  1  0  0  0
 33 34  2  0  0  0
 34 35  1  0  0  0
 35 36  2  0  0  0
  5  9  1  0  0  0
  9 10  2  0  0  0
 10 11  1  0  0  0
 11 12  2  0  0  0
 12 13  1  0  0  0
 13 14  2  0  0  0
  5  6  1  0  0  0
  6  7  2  0  0  0
 24 25  1  0  0  0
 25 20  2  0  0  0
  6  1  1  0  0  0
 36 31  1  0  0  0
 14  9  1  0  0  0
 16 19  1  0  0  0
  4  8  1  0  0  0
M  END
> <minimizedAffinity>
-10.89499

$$$$
OCNT-2309697


 23 25  0  0  0  0  0  0  0  0999 V2000
   -2.1979   26.0091    5.2948 C   0  0  0  0  0  0  0  0  0  0  0  0
   -2.1038   25.7208    3.7946 C   0  0  0  0  0  0  0  0  0  0  0  0
   -3.3457   26.3636    3.1969 C   0  0  0  0  0  0  0  0  0  0  0  0
   -4.3209   26.2431    4.2864 N   0  0  0  0  0  0  0  0  0  0  0  0
   -3.5715   26.6528    5.4817 C   0  0  0  0  0  0  0  0  0  0  0  0
   -0.0607   27.1538    5.2288 O   0  0  0  0  0  0  0  0  0  0  0  0
   -1.1120   26.9321    5.8196 C   0  0  0  0  0  0  0  0  0  0  0  0
   -1.4286   27.5185    7.0256 N   0  0  0  0  0  0  0  0  0  0  0  0
   -2.1877   27.1357    7.5744 H   0  0  0  0  0  0  0  0  0  0  0  0
   -0.4697   28.3554    7.7086 C   0  0  0  0  0  0  0  0  0  0  0  0
   -1.0105   29.7490    7.8776 C   0  0  0  0  0  0  0  0  0  0  0  0
   -1.8116   30.3300    6.8846 C   0  0  0  0  0  0  0  0  0  0  0  0
   -2.2866   31.6343    7.0330 C   0  0  0  0  0  0  0  0  0  0  0  0
   -1.9599   32.3713    8.1699 C   0  0  0  0  0  0  0  0  0  0  0  0
   -1.1564   31.8071    9.1588 C   0  0  0  0  0  0  0  0  0  0  0  0
   -0.6806   30.5034    9.0127 C   0  0  0  0  0  0  0  0  0  0  0  0
   -5.5190   27.0635    4.0891 C   0  0  0  0  0  0  0  0  0  0  0  0
   -5.5977   28.1803    5.1250 C   0  0  0  0  0  0  0  0  0  0  0  0
   -6.1234   29.5565    4.6429 C   0  0  0  0  0  0  0  0  0  0  0  0
   -6.8605   29.6787    5.9947 C   0  0  0  0  0  0  0  0  0  0  0  0
   -6.1797   30.3205    6.9720 F   0  0  0  0  0  0  0  0  0  0  0  0
   -8.0922   30.2321    5.9463 F   0  0  0  0  0  0  0  0  0  0  0  0
   -6.8231   28.1344    6.0704 C   0  0  0  0  0  0  0  0  0  0  0  0
  6  7  2  0  0  0
  7  8  1  0  0  0
  8 10  1  0  0  0
 10 11  1  0  0  0
 11 12  2  0  0  0
 12 13  1  0  0  0
 13 14  2  0  0  0
 14 15  1  0  0  0
 15 16  2  0  0  0
  7  1  1  0  0  0
  1  2  1  0  0  0
  2  3  1  0  0  0
  3  4  1  0  0  0
  4 17  1  0  0  0
 17 18  1  0  0  0
 18 19  1  0  0  0
 19 20  1  0  0  0
 20 21  1  0  0  0
 20 22  1  0  0  0
 20 23  1  0  0  0
  4  5  1  0  0  0
 16 11  1  0  0  0
  5  1  1  0  0  0
 23 18  1  0  0  0
  8  9  1  0  0  0
M  END
> <minimizedAffinity>
-8.69560

$$$$
OCNT-2309699


 28 31  0  0  0  0  0  0  0  0999 V2000
   -1.8461   26.4056    3.7464 O   0  0  0  0  0  0  0  0  0  0  0  0
   -2.5618   25.8982    4.6026 C   0  0  0  0  0  0  0  0  0  0  0  0
   -3.7861   25.2966    4.3876 N   0  0  0  0  0  0  0  0  0  0  0  0
   -4.2422   24.8936    5.2003 H   0  0  0  0  0  0  0  0  0  0  0  0
   -4.4624   25.1115    3.1576 C   0  0  0  0  0  0  0  0  0  0  0  0
   -4.2231   24.0501    2.2876 C   0  0  0  0  0  0  0  0  0  0  0  0
   -4.8643   23.8702    1.1051 N   0  0  0  0  0  0  0  0  0  0  0  0
   -5.7874   24.7896    0.7664 C   0  0  0  0  0  0  0  0  0  0  0  0
   -6.1055   25.8817    1.5547 C   0  0  0  0  0  0  0  0  0  0  0  0
   -5.4418   26.0533    2.7765 C   0  0  0  0  0  0  0  0  0  0  0  0
   -5.7989   27.1910    3.6321 C   0  0  0  0  0  0  0  0  0  0  0  0
   -6.2051   26.9914    4.9579 C   0  0  0  0  0  0  0  0  0  0  0  0
   -6.6098   28.0706    5.7452 C   0  0  0  0  0  0  0  0  0  0  0  0
   -6.6081   29.3592    5.2173 C   0  0  0  0  0  0  0  0  0  0  0  0
   -6.1973   29.5736    3.9048 C   0  0  0  0  0  0  0  0  0  0  0  0
   -5.7964   28.4961    3.1162 C   0  0  0  0  0  0  0  0  0  0  0  0
   -2.1660   25.9131    6.0736 C   0  0  0  0  0  0  0  0  0  0  0  0
   -1.9319   27.3081    6.6083 C   0  0  0  0  0  0  0  0  0  0  0  0
   -0.7078   27.6544    7.1993 C   0  0  0  0  0  0  0  0  0  0  0  0
   -0.4830   28.9567    7.6564 C   0  0  0  0  0  0  0  0  0  0  0  0
    1.0555   29.3219    8.3579 Cl  0  0  0  0  0  0  0  0  0  0  0  0
   -1.4770   29.9307    7.5292 C   0  0  0  0  0  0  0  0  0  0  0  0
   -1.2096   31.2029    7.9721 O   0  0  0  0  0  0  0  0  0  0  0  0
   -2.1494   32.1540    7.4687 C   0  0  0  0  0  0  0  0  0  0  0  0
   -3.5642   31.6318    7.6191 C   0  0  0  0  0  0  0  0  0  0  0  0
   -3.7516   30.4532    6.8280 O   0  0  0  0  0  0  0  0  0  0  0  0
   -2.7093   29.5782    6.9672 C   0  0  0  0  0  0  0  0  0  0  0  0
   -2.9312   28.2832    6.4976 C   0  0  0  0  0  0  0  0  0  0  0  0
  1  2  2  0  0  0
  2 17  1  0  0  0
 17 18  1  0  0  0
 18 19  1  0  0  0
 19 20  2  0  0  0
 20 21  1  0  0  0
 20 22  1  0  0  0
 22 23  1  0  0  0
 23 24  1  0  0  0
 24 25  1  0  0  0
 25 26  1  0  0  0
 26 27  1  0  0  0
 27 28  1  0  0  0
  2  3  1  0  0  0
  3  5  1  0  0  0
  5  6  2  0  0  0
  6  7  1  0  0  0
  7  8  2  0  0  0
  8  9  1  0  0  0
  9 10  2  0  0  0
 10 11  1  0  0  0
 11 12  2  0  0  0
 12 13  1  0  0  0
 13 14  2  0  0  0
 14 15  1  0  0  0
 15 16  2  0  0  0
 28 18  2  0  0  0
 10  5  1  0  0  0
 16 11  1  0  0  0
 27 22  2  0  0  0
  3  4  1  0  0  0
M  END
> <minimizedAffinity>
-10.16161

$$$$
OCNT-2309702


 29 32  0  0  0  0  0  0  0  0999 V2000
   -3.5778   27.2420    5.2753 C   0  0  0  0  0  0  0  0  0  0  0  0
   -3.8495   26.3330    4.2613 C   0  0  0  0  0  0  0  0  0  0  0  0
   -2.7105   25.5313    3.9301 C   0  0  0  0  0  0  0  0  0  0  0  0
   -1.6068   25.8577    4.6830 C   0  0  0  0  0  0  0  0  0  0  0  0
   -1.9319   27.1243    5.7746 S   0  0  0  0  0  0  0  0  0  0  0  0
   -5.5308   28.0068    6.3759 O   0  0  0  0  0  0  0  0  0  0  0  0
   -4.4055   28.2442    5.9384 C   0  0  0  0  0  0  0  0  0  0  0  0
   -3.8767   29.5154    6.0093 N   0  0  0  0  0  0  0  0  0  0  0  0
   -3.0659   29.7400    5.4391 H   0  0  0  0  0  0  0  0  0  0  0  0
   -4.6726   30.6443    6.4549 C   0  0  0  0  0  0  0  0  0  0  0  0
   -3.7875   31.8652    6.8116 C   0  0  0  0  0  0  0  0  0  0  0  0
   -4.5037   32.7817    7.8253 C   0  0  0  0  0  0  0  0  0  0  0  0
   -4.1898   32.3877    9.2637 C   0  0  0  0  0  0  0  0  0  0  0  0
   -2.6808   32.3772    9.5203 C   0  0  0  0  0  0  0  0  0  0  0  0
   -1.8584   32.3348    8.2314 C   0  0  0  0  0  0  0  0  0  0  0  0
   -2.4456   31.4139    7.2628 N   0  0  0  0  0  0  0  0  0  0  0  0
   -2.5270   30.4933    7.6957 H   0  0  0  0  0  0  0  0  0  0  0  0
   -5.3888   26.2138    3.4604 S   0  0  0  0  0  0  0  0  0  0  0  0
   -6.2225   25.5983    4.4772 O   0  0  0  0  0  0  0  0  0  0  0  0
   -5.6340   27.5648    3.0069 O   0  0  0  0  0  0  0  0  0  0  0  0
   -5.3338   25.1681    2.1471 N   0  0  0  0  0  0  0  0  0  0  0  0
   -6.0535   25.5599    0.9036 C   0  0  0  0  0  0  0  0  0  0  0  0
   -6.2616   24.2567    0.1112 C   0  0  0  0  0  0  0  0  0  0  0  0
   -5.9878   23.2032    1.1375 C   0  0  0  0  0  0  0  0  0  0  0  0
   -6.1691   21.8348    1.0098 C   0  0  0  0  0  0  0  0  0  0  0  0
   -5.7808   21.0155    2.0706 C   0  0  0  0  0  0  0  0  0  0  0  0
   -5.2017   21.5682    3.2227 C   0  0  0  0  0  0  0  0  0  0  0  0
   -5.0149   22.9493    3.3357 C   0  0  0  0  0  0  0  0  0  0  0  0
   -5.4434   23.7559    2.2975 C   0  0  0  0  0  0  0  0  0  0  0  0
  6  7  2  0  0  0
  7  8  1  0  0  0
  8 10  1  0  0  0
 10 11  1  0  0  0
 11 12  1  0  0  0
 12 13  1  0  0  0
 13 14  1  0  0  0
 14 15  1  0  0  0
 15 16  1  0  0  0
  7  1  1  0  0  0
  1  2  2  0  0  0
  2 18  1  0  0  0
 18 19  2  0  0  0
 18 20  2  0  0  0
 18 21  1  0  0  0
 21 22  1  0  0  0
 22 23  1  0  0  0
 23 24  1  0  0  0
 24 25  2  0  0  0
 25 26  1  0  0  0
 26 27  2  0  0  0
 27 28  1  0  0  0
 28 29  2  0  0  0
  2  3  1  0  0  0
  3  4  2  0  0  0
  4  5  1  0  0  0
 16 11  1  0  0  0
  5  1  1  0  0  0
 29 21  1  0  0  0
 29 24  1  0  0  0
  8  9  1  0  0  0
 16 17  1  0  0  0
M  END
> <minimizedAffinity>
-9.67309

$$$$
OCNT-2309728


 28 31  0  0  0  0  0  0  0  0999 V2000
   -2.7387   31.7273    8.7178 S   0  0  0  0  0  0  0  0  0  0  0  0
   -2.0198   32.1836    7.5465 O   0  0  0  0  0  0  0  0  0  0  0  0
   -2.9202   32.5925    9.8633 O   0  0  0  0  0  0  0  0  0  0  0  0
   -4.3229   31.1484    8.1719 C   0  0  0  0  0  0  0  0  0  0  0  0
   -5.4741   31.4987    8.8788 C   0  0  0  0  0  0  0  0  0  0  0  0
   -6.7104   31.0391    8.4341 C   0  0  0  0  0  0  0  0  0  0  0  0
   -6.7898   30.2415    7.2876 C   0  0  0  0  0  0  0  0  0  0  0  0
   -5.6392   29.8894    6.5587 C   0  0  0  0  0  0  0  0  0  0  0  0
   -4.3990   30.3602    7.0173 C   0  0  0  0  0  0  0  0  0  0  0  0
   -5.7321   29.0547    5.3491 C   0  0  0  0  0  0  0  0  0  0  0  0
   -5.5760   27.6598    5.4169 C   0  0  0  0  0  0  0  0  0  0  0  0
   -5.6615   26.8675    4.2685 C   0  0  0  0  0  0  0  0  0  0  0  0
   -5.9060   27.4572    3.0312 C   0  0  0  0  0  0  0  0  0  0  0  0
   -6.0645   28.8375    2.9411 C   0  0  0  0  0  0  0  0  0  0  0  0
   -5.9779   29.6285    4.0901 C   0  0  0  0  0  0  0  0  0  0  0  0
   -1.9726   30.3005    9.2097 N   0  0  0  0  0  0  0  0  0  0  0  0
   -2.5361   29.8152    9.9072 H   0  0  0  0  0  0  0  0  0  0  0  0
   -0.5294   25.3199    4.1730 O   0  0  0  0  0  0  0  0  0  0  0  0
   -0.6307   26.2180    4.9916 C   0  0  0  0  0  0  0  0  0  0  0  0
   -1.8102   26.4662    5.9399 C   0  0  0  0  0  0  0  0  0  0  0  0
   -1.3588   27.6834    6.6907 C   0  0  0  0  0  0  0  0  0  0  0  0
   -1.9970   28.3961    7.6890 C   0  0  0  0  0  0  0  0  0  0  0  0
   -1.3373   29.5122    8.2126 C   0  0  0  0  0  0  0  0  0  0  0  0
   -0.0739   29.9037    7.7312 C   0  0  0  0  0  0  0  0  0  0  0  0
    0.5618   29.1737    6.7229 C   0  0  0  0  0  0  0  0  0  0  0  0
   -0.1043   28.0745    6.2263 C   0  0  0  0  0  0  0  0  0  0  0  0
    0.3157   27.2075    5.2319 N   0  0  0  0  0  0  0  0  0  0  0  0
    1.1866   27.2622    4.7257 H   0  0  0  0  0  0  0  0  0  0  0  0
 18 19  2  0  0  0
 19 20  1  0  0  0
 20 21  1  0  0  0
 21 22  1  0  0  0
 22 23  2  0  0  0
 23 16  1  0  0  0
 16  1  1  0  0  0
  1  2  2  0  0  0
  1  3  2  0  0  0
  1  4  1  0  0  0
  4  5  2  0  0  0
  5  6  1  0  0  0
  6  7  2  0  0  0
  7  8  1  0  0  0
  8 10  1  0  0  0
 10 11  2  0  0  0
 11 12  1  0  0  0
 12 13  2  0  0  0
 13 14  1  0  0  0
 14 15  2  0  0  0
  8  9  2  0  0  0
 23 24  1  0  0  0
 24 25  2  0  0  0
 25 26  1  0  0  0
 26 27  1  0  0  0
 27 19  1  0  0  0
 26 21  2  0  0  0
  9  4  1  0  0  0
 15 10  1  0  0  0
 16 17  1  0  0  0
 27 28  1  0  0  0
M  END
> <minimizedAffinity>
-10.57862

$$$$
OCNT-2309730


 32 37  0  0  0  0  0  0  0  0999 V2000
   -7.6541   30.7124    6.8015 C   0  0  0  0  0  0  0  0  0  0  0  0
   -6.6312   29.7384    6.2945 C   0  0  0  0  0  0  0  0  0  0  0  0
   -7.0095   28.7079    5.4166 C   0  0  0  0  0  0  0  0  0  0  0  0
   -6.0778   27.7695    4.9533 C   0  0  0  0  0  0  0  0  0  0  0  0
   -4.7691   27.8460    5.4005 C   0  0  0  0  0  0  0  0  0  0  0  0
   -4.3881   28.8799    6.2595 C   0  0  0  0  0  0  0  0  0  0  0  0
   -5.3025   29.8201    6.7226 C   0  0  0  0  0  0  0  0  0  0  0  0
   -2.9178   28.8337    6.5639 C   0  0  0  0  0  0  0  0  0  0  0  0
   -2.6311   28.5032    8.0321 C   0  0  0  0  0  0  0  0  0  0  0  0
   -1.2205   28.2046    8.3120 N   0  0  0  0  0  0  0  0  0  0  0  0
   -0.4762   29.3818    8.7503 C   0  0  0  0  0  0  0  0  0  0  0  0
   -0.5261   27.5145    7.2168 C   0  0  0  0  0  0  0  0  0  0  0  0
   -1.4789   26.7386    6.3112 C   0  0  0  0  0  0  0  0  0  0  0  0
   -2.4358   27.7131    5.6117 C   0  0  0  0  0  0  0  0  0  0  0  0
   -3.6482   27.0509    5.0761 N   0  0  0  0  0  0  0  0  0  0  0  0
   -3.5438   26.0166    4.1588 C   0  0  0  0  0  0  0  0  0  0  0  0
   -2.4994   25.7557    3.5607 O   0  0  0  0  0  0  0  0  0  0  0  0
   -4.6795   25.1091    3.9324 C   0  0  0  0  0  0  0  0  0  0  0  0
   -5.1219   24.8212    2.6500 C   0  0  0  0  0  0  0  0  0  0  0  0
   -6.1813   24.0205    2.3913 N   0  0  0  0  0  0  0  0  0  0  0  0
   -6.8396   23.5193    3.4674 C   0  0  0  0  0  0  0  0  0  0  0  0
   -6.5015   23.7658    4.8015 C   0  0  0  0  0  0  0  0  0  0  0  0
   -5.3919   24.5936    5.0182 C   0  0  0  0  0  0  0  0  0  0  0  0
   -7.2716   23.1959    5.9175 C   0  0  0  0  0  0  0  0  0  0  0  0
   -6.6681   22.2961    6.8303 C   0  0  0  0  0  0  0  0  0  0  0  0
   -7.3869   21.7403    7.8944 C   0  0  0  0  0  0  0  0  0  0  0  0
   -8.7072   22.1030    8.0391 C   0  0  0  0  0  0  0  0  0  0  0  0
   -9.5353   21.6350    9.0250 O   0  0  0  0  0  0  0  0  0  0  0  0
  -10.6973   22.4929    8.9282 C   0  0  0  0  0  0  0  0  0  0  0  0
  -10.7506   23.1115    7.5303 C   0  0  0  0  0  0  0  0  0  0  0  0
   -9.3237   22.9783    7.1627 C   0  0  0  0  0  0  0  0  0  0  0  0
   -8.6286   23.5288    6.0982 C   0  0  0  0  0  0  0  0  0  0  0  0
  1  2  1  0  0  0
  2  3  1  0  0  0
  3  4  2  0  0  0
  4  5  1  0  0  0
  5  6  2  0  0  0
  6  7  1  0  0  0
  6  8  1  0  0  0
  8  9  1  0  0  0
  9 10  1  0  0  0
 10 11  1  0  0  0
 10 12  1  0  0  0
 12 13  1  0  0  0
 13 14  1  0  0  0
 14 15  1  0  0  0
 15 16  1  0  0  0
 16 17  2  0  0  0
 16 18  1  0  0  0
 18 19  1  0  0  0
 19 20  2  0  0  0
 20 21  1  0  0  0
 21 22  2  0  0  0
 22 24  1  0  0  0
 24 25  1  0  0  0
 25 26  2  0  0  0
 26 27  1  0  0  0
 27 28  1  0  0  0
 28 29  1  0  0  0
 29 30  1  0  0  0
 30 31  1  0  0  0
 31 32  1  0  0  0
 22 23  1  0  0  0
  7  2  2  0  0  0
 14  8  1  0  0  0
 23 18  2  0  0  0
 15  5  1  0  0  0
 32 24  2  0  0  0
 31 27  2  0  0  0
M  END
> <minimizedAffinity>
-10.73096

$$$$
OCNT-2309752


 38 43  0  0  0  0  0  0  0  0999 V2000
   -1.2595   26.3031    3.5386 N   0  0  0  0  0  0  0  0  0  0  0  0
   -2.4839   25.7830    3.7904 C   0  0  0  0  0  0  0  0  0  0  0  0
   -3.0360   24.9496    2.9740 N   0  0  0  0  0  0  0  0  0  0  0  0
   -4.2645   24.4809    3.3123 C   0  0  0  0  0  0  0  0  0  0  0  0
   -4.9802   23.5488    2.7154 N   0  0  0  0  0  0  0  0  0  0  0  0
   -6.1391   23.4285    3.4421 C   0  0  0  0  0  0  0  0  0  0  0  0
   -7.2381   22.5837    3.2312 C   0  0  0  0  0  0  0  0  0  0  0  0
   -8.3024   22.6279    4.1386 C   0  0  0  0  0  0  0  0  0  0  0  0
   -8.2860   23.5154    5.2205 C   0  0  0  0  0  0  0  0  0  0  0  0
   -7.2126   24.3911    5.4250 C   0  0  0  0  0  0  0  0  0  0  0  0
   -6.1484   24.3085    4.5203 C   0  0  0  0  0  0  0  0  0  0  0  0
   -4.9607   24.9757    4.3920 N   0  0  0  0  0  0  0  0  0  0  0  0
   -4.3921   26.0138    5.2365 C   0  0  0  0  0  0  0  0  0  0  0  0
   -2.9818   26.2554    4.9624 N   0  0  0  0  0  0  0  0  0  0  0  0
   -9.3447   23.6566    6.0804 O   0  0  0  0  0  0  0  0  0  0  0  0
   -9.6050   22.4593    6.8138 C   0  0  0  0  0  0  0  0  0  0  0  0
  -10.4402   21.4703    6.0160 C   0  0  0  0  0  0  0  0  0  0  0  0
   -9.6374   20.8754    4.8698 C   0  0  0  0  0  0  0  0  0  0  0  0
   -9.3822   21.8362    3.8460 O   0  0  0  0  0  0  0  0  0  0  0  0
   -0.8465   25.8374    2.7336 H   0  0  0  0  0  0  0  0  0  0  0  0
   -0.6344   26.2395    4.3332 H   0  0  0  0  0  0  0  0  0  0  0  0
   -2.6876   27.2026    5.1695 H   0  0  0  0  0  0  0  0  0  0  0  0
   -5.1642   27.3190    5.1220 C   0  0  0  0  0  0  0  0  0  0  0  0
   -5.5286   27.8537    3.8765 C   0  0  0  0  0  0  0  0  0  0  0  0
   -6.2230   29.0605    3.8017 C   0  0  0  0  0  0  0  0  0  0  0  0
   -6.5605   29.7553    4.9654 C   0  0  0  0  0  0  0  0  0  0  0  0
   -6.2040   29.2457    6.2120 C   0  0  0  0  0  0  0  0  0  0  0  0
   -5.5007   28.0381    6.2822 C   0  0  0  0  0  0  0  0  0  0  0  0
   -6.4563   29.8209    7.4266 O   0  0  0  0  0  0  0  0  0  0  0  0
   -6.0184   31.1658    7.6479 C   0  0  0  0  0  0  0  0  0  0  0  0
   -4.5740   31.2386    8.0775 C   0  0  0  0  0  0  0  0  0  0  0  0
   -4.2001   31.1046    9.4239 C   0  0  0  0  0  0  0  0  0  0  0  0
   -2.8577   31.2056    9.7948 C   0  0  0  0  0  0  0  0  0  0  0  0
   -1.8916   31.4511    8.8243 C   0  0  0  0  0  0  0  0  0  0  0  0
   -0.6058   31.5484    9.1857 F   0  0  0  0  0  0  0  0  0  0  0  0
   -2.2394   31.6015    7.4901 C   0  0  0  0  0  0  0  0  0  0  0  0
   -3.5778   31.4990    7.1298 C   0  0  0  0  0  0  0  0  0  0  0  0
   -3.9108   31.6498    5.8401 F   0  0  0  0  0  0  0  0  0  0  0  0
  1  2  1  0  0  0
  2  3  2  0  0  0
  3  4  1  0  0  0
  4  5  2  0  0  0
  5  6  1  0  0  0
  6  7  2  0  0  0
  7  8  1  0  0  0
  8  9  2  0  0  0
  9 10  1  0  0  0
 10 11  2  0  0  0
 11 12  1  0  0  0
 12 13  1  0  0  0
 13 23  1  0  0  0
 23 24  2  0  0  0
 24 25  1  0  0  0
 25 26  2  0  0  0
 26 27  1  0  0  0
 27 29  1  0  0  0
 29 30  1  0  0  0
 30 31  1  0  0  0
 31 32  1  0  0  0
 32 33  2  0  0  0
 33 34  1  0  0  0
 34 35  1  0  0  0
 34 36  2  0  0  0
 36 37  1  0  0  0
 37 38  1  0  0  0
 27 28  2  0  0  0
 13 14  1  0  0  0
  9 15  1  0  0  0
 15 16  1  0  0  0
 16 17  1  0  0  0
 17 18  1  0  0  0
 18 19  1  0  0  0
 14  2  1  0  0  0
 12  4  1  0  0  0
 28 23  1  0  0  0
 11  6  1  0  0  0
 37 31  2  0  0  0
 19  8  1  0  0  0
  1 20  1  0  0  0
  1 21  1  0  0  0
 14 22  1  0  0  0
M  END
> <minimizedAffinity>
-10.84746

$$$$
OCNT-2309755


 24 27  0  0  0  0  0  0  0  0999 V2000
   -4.7354   25.1512    5.0823 N   0  0  0  0  0  0  0  0  0  0  0  0
   -4.2614   24.3181    5.4449 H   0  0  0  0  0  0  0  0  0  0  0  0
   -5.6341   24.6931    3.9949 C   0  0  0  0  0  0  0  0  0  0  0  0
   -5.1746   25.0660    2.5822 C   0  0  0  0  0  0  0  0  0  0  0  0
   -6.0971   24.4803    1.5453 C   0  0  0  0  0  0  0  0  0  0  0  0
   -6.2750   25.1027    0.3046 C   0  0  0  0  0  0  0  0  0  0  0  0
   -7.0569   24.4938   -0.6781 C   0  0  0  0  0  0  0  0  0  0  0  0
   -7.6478   23.2540   -0.4346 C   0  0  0  0  0  0  0  0  0  0  0  0
   -7.4639   22.6206    0.7950 C   0  0  0  0  0  0  0  0  0  0  0  0
   -6.6994   23.2394    1.7833 C   0  0  0  0  0  0  0  0  0  0  0  0
   -6.5165   22.5997    3.0130 N   0  0  0  0  0  0  0  0  0  0  0  0
   -5.9373   23.1865    4.1087 C   0  0  0  0  0  0  0  0  0  0  0  0
   -5.7648   22.5397    5.1425 O   0  0  0  0  0  0  0  0  0  0  0  0
   -6.8338   21.6474    3.1414 H   0  0  0  0  0  0  0  0  0  0  0  0
   -3.6937   26.0807    4.6427 C   0  0  0  0  0  0  0  0  0  0  0  0
   -4.9838   30.2822    7.1065 C   0  0  0  0  0  0  0  0  0  0  0  0
   -4.2908   29.1226    6.6025 N   0  0  0  0  0  0  0  0  0  0  0  0
   -3.1127   28.7697    7.1522 N   0  0  0  0  0  0  0  0  0  0  0  0
   -2.7938   27.6437    6.5103 C   0  0  0  0  0  0  0  0  0  0  0  0
   -3.7434   27.2792    5.5249 C   0  0  0  0  0  0  0  0  0  0  0  0
   -4.6857   28.2880    5.5951 C   0  0  0  0  0  0  0  0  0  0  0  0
   -5.9778   28.3906    4.7427 C   0  0  0  0  0  0  0  0  0  0  0  0
   -5.8636   28.4165    3.2404 C   0  0  0  0  0  0  0  0  0  0  0  0
   -6.2708   29.6552    3.9782 C   0  0  0  0  0  0  0  0  0  0  0  0
 16 17  1  0  0  0
 17 18  1  0  0  0
 18 19  2  0  0  0
 19 20  1  0  0  0
 20 15  1  0  0  0
 15  1  1  0  0  0
  1  3  1  0  0  0
  3  4  1  0  0  0
  4  5  1  0  0  0
  5  6  2  0  0  0
  6  7  1  0  0  0
  7  8  2  0  0  0
  8  9  1  0  0  0
  9 10  2  0  0  0
 10 11  1  0  0  0
 11 12  1  0  0  0
 12 13  2  0  0  0
 20 21  2  0  0  0
 21 22  1  0  0  0
 22 23  1  0  0  0
 23 24  1  0  0  0
 21 17  1  0  0  0
 24 22  1  0  0  0
 12  3  1  0  0  0
 10  5  1  0  0  0
  1  2  1  0  0  0
 11 14  1  0  0  0
M  END
> <minimizedAffinity>
-8.79630

$$$$
OCNT-2309757


 23 25  0  0  0  0  0  0  0  0999 V2000
   -3.6075   25.9618    3.1782 C   0  0  0  0  0  0  0  0  0  0  0  0
   -4.4754   26.8275    3.8135 C   0  0  0  0  0  0  0  0  0  0  0  0
   -5.8326   27.3288    3.4592 C   0  0  0  0  0  0  0  0  0  0  0  0
   -6.2083   28.5709    4.2710 C   0  0  0  0  0  0  0  0  0  0  0  0
   -5.8686   28.3785    5.7494 C   0  0  0  0  0  0  0  0  0  0  0  0
   -4.3702   28.1363    5.9361 C   0  0  0  0  0  0  0  0  0  0  0  0
   -3.8360   27.1870    4.9748 N   0  0  0  0  0  0  0  0  0  0  0  0
   -2.6110   26.5627    5.0130 C   0  0  0  0  0  0  0  0  0  0  0  0
   -2.4584   25.8083    3.9332 N   0  0  0  0  0  0  0  0  0  0  0  0
   -1.6502   26.7647    6.1399 C   0  0  0  0  0  0  0  0  0  0  0  0
   -0.4574   26.1542    5.8975 F   0  0  0  0  0  0  0  0  0  0  0  0
   -2.0997   26.2849    7.3271 F   0  0  0  0  0  0  0  0  0  0  0  0
   -1.3683   28.0824    6.3284 F   0  0  0  0  0  0  0  0  0  0  0  0
   -3.7534   25.2392    1.8647 C   0  0  0  0  0  0  0  0  0  0  0  0
   -4.4755   23.9723    1.9760 N   0  0  0  0  0  0  0  0  0  0  0  0
   -4.7471   23.8395    2.9470 H   0  0  0  0  0  0  0  0  0  0  0  0
   -5.8351   21.4362    1.8687 C   0  0  0  0  0  0  0  0  0  0  0  0
   -6.2624   22.6244    1.0561 C   0  0  0  0  0  0  0  0  0  0  0  0
   -7.3651   22.5173    0.1982 C   0  0  0  0  0  0  0  0  0  0  0  0
   -7.7555   23.6086   -0.5638 C   0  0  0  0  0  0  0  0  0  0  0  0
   -7.0250   24.7728   -0.4412 C   0  0  0  0  0  0  0  0  0  0  0  0
   -5.9617   24.9125    0.3797 N   0  0  0  0  0  0  0  0  0  0  0  0
   -5.5924   23.8554    1.1373 C   0  0  0  0  0  0  0  0  0  0  0  0
 17 18  1  0  0  0
 18 19  1  0  0  0
 19 20  2  0  0  0
 20 21  1  0  0  0
 21 22  2  0  0  0
 22 23  1  0  0  0
 23 15  1  0  0  0
 15 14  1  0  0  0
 14  1  1  0  0  0
  1  2  2  0  0  0
  2  3  1  0  0  0
  3  4  1  0  0  0
  4  5  1  0  0  0
  5  6  1  0  0  0
  6  7  1  0  0  0
  7  8  1  0  0  0
  8 10  1  0  0  0
 10 11  1  0  0  0
 10 12  1  0  0  0
 10 13  1  0  0  0
  8  9  2  0  0  0
 23 18  2  0  0  0
  9  1  1  0  0  0
  7  2  1  0  0  0
 15 16  1  0  0  0
M  END
> <minimizedAffinity>
-8.89583

$$$$
OCNT-2309758


 23 26  0  0  0  0  0  0  0  0999 V2000
   -5.9635   22.0253    5.7044 C   0  0  0  0  0  0  0  0  0  0  0  0
   -5.8699   23.2128    4.7913 C   0  0  0  0  0  0  0  0  0  0  0  0
   -5.7056   23.0312    3.4141 C   0  0  0  0  0  0  0  0  0  0  0  0
   -5.6440   24.1184    2.5354 C   0  0  0  0  0  0  0  0  0  0  0  0
   -5.7638   25.4017    3.0799 C   0  0  0  0  0  0  0  0  0  0  0  0
   -5.7406   26.6332    2.4608 N   0  0  0  0  0  0  0  0  0  0  0  0
   -5.9044   27.6208    3.3909 C   0  0  0  0  0  0  0  0  0  0  0  0
   -6.0294   27.0319    4.6318 C   0  0  0  0  0  0  0  0  0  0  0  0
   -6.2395   27.8233    5.8814 C   0  0  0  0  0  0  0  0  0  0  0  0
   -5.8953   29.3247    5.6754 C   0  0  0  0  0  0  0  0  0  0  0  0
   -6.4289   29.8554    4.3196 C   0  0  0  0  0  0  0  0  0  0  0  0
   -5.9075   29.0774    3.0977 C   0  0  0  0  0  0  0  0  0  0  0  0
   -5.9423   25.6240    4.4472 C   0  0  0  0  0  0  0  0  0  0  0  0
   -6.0027   24.5117    5.3111 C   0  0  0  0  0  0  0  0  0  0  0  0
   -5.6183   26.7714    1.4672 H   0  0  0  0  0  0  0  0  0  0  0  0
   -4.4461   29.5530    5.7372 N   0  0  0  0  0  0  0  0  0  0  0  0
   -3.9200   28.6833    5.8131 H   0  0  0  0  0  0  0  0  0  0  0  0
   -3.9133   30.5242    6.5211 C   0  0  0  0  0  0  0  0  0  0  0  0
   -4.6603   31.3158    7.2569 N   0  0  0  0  0  0  0  0  0  0  0  0
   -3.8438   32.1973    7.9527 C   0  0  0  0  0  0  0  0  0  0  0  0
   -4.4445   33.2062    8.8555 C   0  0  0  0  0  0  0  0  0  0  0  0
   -2.5196   32.1307    7.8040 N   0  0  0  0  0  0  0  0  0  0  0  0
   -2.2337   30.8804    6.7378 S   0  0  0  0  0  0  0  0  0  0  0  0
  1  2  1  0  0  0
  2  3  2  0  0  0
  3  4  1  0  0  0
  4  5  2  0  0  0
  5  6  1  0  0  0
  6  7  1  0  0  0
  7  8  2  0  0  0
  8  9  1  0  0  0
  9 10  1  0  0  0
 10 16  1  0  0  0
 16 18  1  0  0  0
 18 19  2  0  0  0
 19 20  1  0  0  0
 20 21  1  0  0  0
 20 22  2  0  0  0
 22 23  1  0  0  0
 10 11  1  0  0  0
 11 12  1  0  0  0
  8 13  1  0  0  0
 13 14  2  0  0  0
 14  2  1  0  0  0
 13  5  1  0  0  0
 12  7  1  0  0  0
 23 18  1  0  0  0
  6 15  1  0  0  0
 16 17  1  0  0  0
M  END
> <minimizedAffinity>
-8.91444

$$$$
OCNT-2309776


 26 29  0  0  0  0  0  0  0  0999 V2000
   -5.2065   26.2242    2.9567 C   0  0  0  0  0  0  0  0  0  0  0  0
   -6.0430   25.4469    2.2486 N   0  0  0  0  0  0  0  0  0  0  0  0
   -5.2384   24.6204    1.5687 N   0  0  0  0  0  0  0  0  0  0  0  0
   -3.9178   24.8229    1.8109 C   0  0  0  0  0  0  0  0  0  0  0  0
   -3.8422   25.8500    2.7324 C   0  0  0  0  0  0  0  0  0  0  0  0
   -5.6645   23.9337    0.9557 H   0  0  0  0  0  0  0  0  0  0  0  0
   -7.3940   30.5934    6.6909 Br  0  0  0  0  0  0  0  0  0  0  0  0
   -6.7290   29.2510    5.5374 C   0  0  0  0  0  0  0  0  0  0  0  0
   -6.3448   29.5834    4.2391 C   0  0  0  0  0  0  0  0  0  0  0  0
   -5.8522   28.5912    3.3864 C   0  0  0  0  0  0  0  0  0  0  0  0
   -5.7341   27.2680    3.8324 C   0  0  0  0  0  0  0  0  0  0  0  0
   -6.1389   26.9465    5.1359 C   0  0  0  0  0  0  0  0  0  0  0  0
   -6.6324   27.9364    5.9897 C   0  0  0  0  0  0  0  0  0  0  0  0
   -2.6032   26.4201    3.3513 C   0  0  0  0  0  0  0  0  0  0  0  0
   -2.0685   25.4854    4.3598 N   0  0  0  0  0  0  0  0  0  0  0  0
   -2.8092   25.5922    5.6407 C   0  0  0  0  0  0  0  0  0  0  0  0
   -2.2539   26.6086    6.6786 C   0  0  0  0  0  0  0  0  0  0  0  0
   -1.4727   27.6917    6.0637 N   0  0  0  0  0  0  0  0  0  0  0  0
   -0.3490   27.1455    5.2836 C   0  0  0  0  0  0  0  0  0  0  0  0
   -0.6447   25.7704    4.6205 C   0  0  0  0  0  0  0  0  0  0  0  0
   -1.1492   28.7833    6.9991 C   0  0  0  0  0  0  0  0  0  0  0  0
    0.2848   28.6600    7.5503 C   0  0  0  0  0  0  0  0  0  0  0  0
    0.4956   29.5297    8.7879 C   0  0  0  0  0  0  0  0  0  0  0  0
   -0.3878   30.6442    8.7796 O   0  0  0  0  0  0  0  0  0  0  0  0
   -1.7541   30.2609    8.9417 C   0  0  0  0  0  0  0  0  0  0  0  0
   -2.1264   28.9982    8.1609 C   0  0  0  0  0  0  0  0  0  0  0  0
  7  8  1  0  0  0
  8  9  1  0  0  0
  9 10  2  0  0  0
 10 11  1  0  0  0
 11  1  1  0  0  0
  1  2  2  0  0  0
  2  3  1  0  0  0
  3  4  1  0  0  0
  4  5  2  0  0  0
  5 14  1  0  0  0
 14 15  1  0  0  0
 15 16  1  0  0  0
 16 17  1  0  0  0
 17 18  1  0  0  0
 18 21  1  0  0  0
 21 22  1  0  0  0
 22 23  1  0  0  0
 23 24  1  0  0  0
 24 25  1  0  0  0
 25 26  1  0  0  0
 18 19  1  0  0  0
 19 20  1  0  0  0
 11 12  2  0  0  0
 12 13  1  0  0  0
 13  8  2  0  0  0
  5  1  1  0  0  0
 20 15  1  0  0  0
 26 21  1  0  0  0
  3  6  1  0  0  0
M  END
> <minimizedAffinity>
-8.71314

$$$$
OCNT-2309787


 23 25  0  0  0  0  0  0  0  0999 V2000
   -5.3429   30.4142    8.4940 C   0  0  0  0  0  0  0  0  0  0  0  0
   -6.3587   30.5451    9.6173 C   0  0  0  0  0  0  0  0  0  0  0  0
   -5.9275   29.1850    9.1642 C   0  0  0  0  0  0  0  0  0  0  0  0
   -3.8902   30.8260    8.8156 C   0  0  0  0  0  0  0  0  0  0  0  0
   -3.6768   32.0388    9.3701 N   0  0  0  0  0  0  0  0  0  0  0  0
   -2.4061   32.3922    9.6253 C   0  0  0  0  0  0  0  0  0  0  0  0
   -1.3272   31.5947    9.3388 C   0  0  0  0  0  0  0  0  0  0  0  0
   -1.6080   30.3755    8.7508 C   0  0  0  0  0  0  0  0  0  0  0  0
   -2.8839   29.9862    8.4893 N   0  0  0  0  0  0  0  0  0  0  0  0
   -0.4606   29.4345    8.4216 C   0  0  0  0  0  0  0  0  0  0  0  0
   -0.8174   28.1222    8.5271 F   0  0  0  0  0  0  0  0  0  0  0  0
    0.6011   29.5919    9.2673 F   0  0  0  0  0  0  0  0  0  0  0  0
    0.0455   29.5886    7.1662 F   0  0  0  0  0  0  0  0  0  0  0  0
   -5.8385   30.7604    7.1304 N   0  0  0  0  0  0  0  0  0  0  0  0
   -5.0704   30.6418    6.4681 H   0  0  0  0  0  0  0  0  0  0  0  0
   -6.9531   29.9126    6.7077 C   0  0  0  0  0  0  0  0  0  0  0  0
   -5.4961   26.7083    2.2977 F   0  0  0  0  0  0  0  0  0  0  0  0
   -5.8398   27.4698    3.3448 C   0  0  0  0  0  0  0  0  0  0  0  0
   -5.9535   28.8454    3.1818 C   0  0  0  0  0  0  0  0  0  0  0  0
   -6.3128   29.6416    4.2707 C   0  0  0  0  0  0  0  0  0  0  0  0
   -6.5528   29.0596    5.5257 C   0  0  0  0  0  0  0  0  0  0  0  0
   -6.4395   27.6662    5.6659 C   0  0  0  0  0  0  0  0  0  0  0  0
   -6.0808   26.8725    4.5758 C   0  0  0  0  0  0  0  0  0  0  0  0
 17 18  1  0  0  0
 18 19  1  0  0  0
 19 20  2  0  0  0
 20 21  1  0  0  0
 21 16  1  0  0  0
 16 14  1  0  0  0
 14  1  1  0  0  0
  1  4  1  0  0  0
  4  5  2  0  0  0
  5  6  1  0  0  0
  6  7  2  0  0  0
  7  8  1  0  0  0
  8 10  1  0  0  0
 10 11  1  0  0  0
 10 12  1  0  0  0
 10 13  1  0  0  0
  8  9  2  0  0  0
  1  2  1  0  0  0
  2  3  1  0  0  0
 21 22  2  0  0  0
 22 23  1  0  0  0
 23 18  2  0  0  0
  3  1  1  0  0  0
  9  4  1  0  0  0
 14 15  1  0  0  0
M  END
> <minimizedAffinity>
-9.26693

$$$$
OCNT-2309801


 22 24  0  0  0  0  0  0  0  0999 V2000
   -3.0932   28.6678    7.6301 C   0  0  0  0  0  0  0  0  0  0  0  0
   -2.1093   28.5038    8.3546 O   0  0  0  0  0  0  0  0  0  0  0  0
   -3.2074   27.9964    6.4069 N   0  0  0  0  0  0  0  0  0  0  0  0
   -2.0187   27.3617    5.8481 C   0  0  0  0  0  0  0  0  0  0  0  0
   -2.3300   25.9652    5.3195 C   0  0  0  0  0  0  0  0  0  0  0  0
   -3.4876   26.0011    4.3567 C   0  0  0  0  0  0  0  0  0  0  0  0
   -3.6259   25.0035    3.3815 C   0  0  0  0  0  0  0  0  0  0  0  0
   -4.7154   25.0225    2.5127 C   0  0  0  0  0  0  0  0  0  0  0  0
   -4.8780   23.7932    1.3192 Cl  0  0  0  0  0  0  0  0  0  0  0  0
   -5.6777   26.0238    2.6088 C   0  0  0  0  0  0  0  0  0  0  0  0
   -5.5512   27.0142    3.5845 C   0  0  0  0  0  0  0  0  0  0  0  0
   -4.4608   27.0107    4.4697 C   0  0  0  0  0  0  0  0  0  0  0  0
   -4.3723   28.0919    5.5286 C   0  0  0  0  0  0  0  0  0  0  0  0
   -5.3733   31.4590    8.1439 C   0  0  0  0  0  0  0  0  0  0  0  0
   -4.3527   30.8707    7.5666 N   0  0  0  0  0  0  0  0  0  0  0  0
   -4.1693   29.5800    8.0655 C   0  0  0  0  0  0  0  0  0  0  0  0
   -5.0667   29.2405    9.0647 C   0  0  0  0  0  0  0  0  0  0  0  0
   -6.1669   30.5176    9.3447 S   0  0  0  0  0  0  0  0  0  0  0  0
   -5.8141   32.7056    7.8617 N   0  0  0  0  0  0  0  0  0  0  0  0
   -6.7497   32.9298    8.1846 H   0  0  0  0  0  0  0  0  0  0  0  0
   -4.7012   34.3236    9.2919 C   0  0  0  0  0  0  0  0  0  0  0  0
   -4.8642   33.8019    7.8737 C   0  0  0  0  0  0  0  0  0  0  0  0
 21 22  1  0  0  0
 22 19  1  0  0  0
 19 14  1  0  0  0
 14 15  2  0  0  0
 15 16  1  0  0  0
 16  1  1  0  0  0
  1  2  2  0  0  0
  1  3  1  0  0  0
  3  4  1  0  0  0
  4  5  1  0  0  0
  5  6  1  0  0  0
  6  7  1  0  0  0
  7  8  2  0  0  0
  8  9  1  0  0  0
  8 10  1  0  0  0
 10 11  2  0  0  0
 11 12  1  0  0  0
 12 13  1  0  0  0
 16 17  2  0  0  0
 17 18  1  0  0  0
 18 14  1  0  0  0
 13  3  1  0  0  0
 12  6  2  0  0  0
 19 20  1  0  0  0
M  END
> <minimizedAffinity>
-7.96798

$$$$
OCNT-2309804


 25 27  0  0  0  0  0  0  0  0999 V2000
   -6.1557   31.5246    7.8714 N   0  0  0  0  0  0  0  0  0  0  0  0
   -5.7300   30.3365    7.3076 C   0  0  0  0  0  0  0  0  0  0  0  0
   -4.8437   29.6520    7.8000 O   0  0  0  0  0  0  0  0  0  0  0  0
   -6.4510   30.0631    6.1655 N   0  0  0  0  0  0  0  0  0  0  0  0
   -6.4218   32.2256    7.1986 H   0  0  0  0  0  0  0  0  0  0  0  0
   -7.2867   30.6163    6.0490 H   0  0  0  0  0  0  0  0  0  0  0  0
   -6.2696   28.9930    5.2689 C   0  0  0  0  0  0  0  0  0  0  0  0
   -6.3612   27.6972    5.7884 C   0  0  0  0  0  0  0  0  0  0  0  0
   -6.2008   26.5808    4.9601 C   0  0  0  0  0  0  0  0  0  0  0  0
   -5.9481   26.7482    3.5922 C   0  0  0  0  0  0  0  0  0  0  0  0
   -5.8618   28.0425    3.0672 C   0  0  0  0  0  0  0  0  0  0  0  0
   -6.0248   29.1552    3.9043 C   0  0  0  0  0  0  0  0  0  0  0  0
   -5.7861   25.6082    2.7640 N   0  0  0  0  0  0  0  0  0  0  0  0
   -5.6920   25.5398    1.3921 C   0  0  0  0  0  0  0  0  0  0  0  0
   -5.5476   24.2026    1.1170 C   0  0  0  0  0  0  0  0  0  0  0  0
   -5.5551   23.4957    2.2790 N   0  0  0  0  0  0  0  0  0  0  0  0
   -5.7002   24.3551    3.2785 N   0  0  0  0  0  0  0  0  0  0  0  0
   -5.4798   32.0228    9.0497 C   0  0  0  0  0  0  0  0  0  0  0  0
   -4.5110   33.1591    8.7629 C   0  0  0  0  0  0  0  0  0  0  0  0
   -4.7899   34.5604    9.2883 C   0  0  0  0  0  0  0  0  0  0  0  0
   -4.9271   34.2755    7.8199 C   0  0  0  0  0  0  0  0  0  0  0  0
   -3.0443   32.7283    8.7378 C   0  0  0  0  0  0  0  0  0  0  0  0
   -2.6540   31.7887    9.8798 C   0  0  0  0  0  0  0  0  0  0  0  0
   -0.7058   30.7533    9.0502 C   0  0  0  0  0  0  0  0  0  0  0  0
   -2.0873   30.5936    9.3432 O   0  0  0  0  0  0  0  0  0  0  0  0
 24 25  1  0  0  0
 25 23  1  0  0  0
 23 22  1  0  0  0
 22 19  1  0  0  0
 19 18  1  0  0  0
 18  1  1  0  0  0
  1  2  1  0  0  0
  2  3  2  0  0  0
  2  4  1  0  0  0
  4  7  1  0  0  0
  7  8  1  0  0  0
  8  9  2  0  0  0
  9 10  1  0  0  0
 10 13  1  0  0  0
 13 14  1  0  0  0
 14 15  2  0  0  0
 15 16  1  0  0  0
 16 17  2  0  0  0
 10 11  2  0  0  0
 11 12  1  0  0  0
 19 20  1  0  0  0
 20 21  1  0  0  0
 21 19  1  0  0  0
 12  7  2  0  0  0
 17 13  1  0  0  0
  1  5  1  0  0  0
  4  6  1  0  0  0
M  END
> <minimizedAffinity>
-8.60070

$$$$
OCNT-2309817


 21 24  0  0  0  0  0  0  0  0999 V2000
   -5.6215   26.5490    4.1010 N   0  0  0  0  0  0  0  0  0  0  0  0
   -5.8371   27.5693    3.0808 C   0  0  0  0  0  0  0  0  0  0  0  0
   -6.2967   28.8713    3.7317 C   0  0  0  0  0  0  0  0  0  0  0  0
   -5.3250   29.3347    4.8075 C   0  0  0  0  0  0  0  0  0  0  0  0
   -5.1250   28.2463    5.8722 C   0  0  0  0  0  0  0  0  0  0  0  0
   -4.0725   28.6548    6.8498 C   0  0  0  0  0  0  0  0  0  0  0  0
   -2.8060   28.1158    6.8881 C   0  0  0  0  0  0  0  0  0  0  0  0
   -2.2878   27.0318    6.0205 C   0  0  0  0  0  0  0  0  0  0  0  0
   -3.2291   26.8394    4.8144 C   0  0  0  0  0  0  0  0  0  0  0  0
   -4.7305   26.8705    5.2334 C   0  0  0  0  0  0  0  0  0  0  0  0
   -2.1716   28.7682    7.9052 N   0  0  0  0  0  0  0  0  0  0  0  0
   -0.8228   28.5548    8.3613 C   0  0  0  0  0  0  0  0  0  0  0  0
   -3.0629   29.6675    8.4252 C   0  0  0  0  0  0  0  0  0  0  0  0
   -4.2231   29.6227    7.8038 N   0  0  0  0  0  0  0  0  0  0  0  0
   -5.6733   21.2143    2.3160 C   0  0  0  0  0  0  0  0  0  0  0  0
   -5.6193   22.6231    2.7897 C   0  0  0  0  0  0  0  0  0  0  0  0
   -5.5353   23.6948    1.9348 C   0  0  0  0  0  0  0  0  0  0  0  0
   -5.5224   24.9799    2.3399 N   0  0  0  0  0  0  0  0  0  0  0  0
   -5.6098   25.2295    3.6577 C   0  0  0  0  0  0  0  0  0  0  0  0
   -5.7062   24.2397    4.5630 N   0  0  0  0  0  0  0  0  0  0  0  0
   -5.7174   22.9688    4.1152 C   0  0  0  0  0  0  0  0  0  0  0  0
 15 16  1  0  0  0
 16 17  2  0  0  0
 17 18  1  0  0  0
 18 19  2  0  0  0
 19  1  1  0  0  0
  1  2  1  0  0  0
  2  3  1  0  0  0
  3  4  1  0  0  0
  4  5  1  0  0  0
  5  6  1  0  0  0
  6  7  2  0  0  0
  7  8  1  0  0  0
  8  9  1  0  0  0
  9 10  1  0  0  0
  7 11  1  0  0  0
 11 12  1  0  0  0
 11 13  1  0  0  0
 13 14  2  0  0  0
 19 20  1  0  0  0
 20 21  2  0  0  0
 21 16  1  0  0  0
 10  1  1  0  0  0
 10  5  1  0  0  0
 14  6  1  0  0  0
M  END
> <minimizedAffinity>
-7.85319

$$$$
OCNT-2309819


 23 25  0  0  0  0  0  0  0  0999 V2000
   -5.7795   28.8090    4.6130 N   0  0  0  0  0  0  0  0  0  0  0  0
   -6.0888   29.7626    3.5511 C   0  0  0  0  0  0  0  0  0  0  0  0
   -5.5751   27.4427    4.3930 C   0  0  0  0  0  0  0  0  0  0  0  0
   -5.6840   26.6213    5.2997 O   0  0  0  0  0  0  0  0  0  0  0  0
   -5.2193   27.1329    3.0981 N   0  0  0  0  0  0  0  0  0  0  0  0
   -4.7925   27.8898    2.5871 H   0  0  0  0  0  0  0  0  0  0  0  0
   -5.0912   25.8468    2.5322 C   0  0  0  0  0  0  0  0  0  0  0  0
   -4.2208   24.8742    3.0135 C   0  0  0  0  0  0  0  0  0  0  0  0
   -4.1965   23.6400    2.3833 C   0  0  0  0  0  0  0  0  0  0  0  0
   -4.9751   23.3149    1.3294 N   0  0  0  0  0  0  0  0  0  0  0  0
   -5.8152   24.2710    0.8859 C   0  0  0  0  0  0  0  0  0  0  0  0
   -5.9116   25.5342    1.4479 C   0  0  0  0  0  0  0  0  0  0  0  0
   -7.2984   29.8101    6.2890 C   0  0  0  0  0  0  0  0  0  0  0  0
   -5.8896   29.2653    6.0223 C   0  0  0  0  0  0  0  0  0  0  0  0
   -4.7956   30.2797    6.4382 C   0  0  0  0  0  0  0  0  0  0  0  0
   -5.1861   31.1217    7.6683 C   0  0  0  0  0  0  0  0  0  0  0  0
   -3.8525   31.2627    8.2940 C   0  0  0  0  0  0  0  0  0  0  0  0
   -3.4389   32.0961    9.3175 C   0  0  0  0  0  0  0  0  0  0  0  0
   -2.1224   31.9764    9.7718 C   0  0  0  0  0  0  0  0  0  0  0  0
   -1.2542   31.0244    9.2106 C   0  0  0  0  0  0  0  0  0  0  0  0
   -1.6919   30.1834    8.1853 C   0  0  0  0  0  0  0  0  0  0  0  0
   -2.9899   30.3293    7.7429 C   0  0  0  0  0  0  0  0  0  0  0  0
   -3.5589   29.5725    6.7533 O   0  0  0  0  0  0  0  0  0  0  0  0
 13 14  1  0  0  0
 14 15  1  0  0  0
 15 16  1  0  0  0
 16 17  1  0  0  0
 17 18  2  0  0  0
 18 19  1  0  0  0
 19 20  2  0  0  0
 20 21  1  0  0  0
 21 22  2  0  0  0
 22 23  1  0  0  0
 14  1  1  0  0  0
  1  2  1  0  0  0
  1  3  1  0  0  0
  3  4  2  0  0  0
  3  5  1  0  0  0
  5  7  1  0  0  0
  7  8  2  0  0  0
  8  9  1  0  0  0
  9 10  2  0  0  0
 10 11  1  0  0  0
 11 12  2  0  0  0
 23 15  1  0  0  0
 12  7  1  0  0  0
 22 17  1  0  0  0
  5  6  1  0  0  0
M  END
> <minimizedAffinity>
-8.65941

$$$$
OCNT-2309836


 31 34  0  0  0  0  0  0  0  0999 V2000
   -2.0361   26.1570    6.9449 O   0  0  0  0  0  0  0  0  0  0  0  0
   -2.2540   27.3292    6.6650 C   0  0  0  0  0  0  0  0  0  0  0  0
   -3.0720   27.8115    5.6592 N   0  0  0  0  0  0  0  0  0  0  0  0
   -3.0365   28.8071    5.4740 H   0  0  0  0  0  0  0  0  0  0  0  0
   -3.8944   27.0615    4.7929 C   0  0  0  0  0  0  0  0  0  0  0  0
   -3.2599   26.3194    3.7904 C   0  0  0  0  0  0  0  0  0  0  0  0
   -4.0102   25.5616    2.8860 C   0  0  0  0  0  0  0  0  0  0  0  0
   -5.4021   25.5308    2.9665 C   0  0  0  0  0  0  0  0  0  0  0  0
   -6.0387   26.2675    3.9633 C   0  0  0  0  0  0  0  0  0  0  0  0
   -5.2874   27.0300    4.8700 C   0  0  0  0  0  0  0  0  0  0  0  0
   -6.0105   24.7587    2.0181 O   0  0  0  0  0  0  0  0  0  0  0  0
   -5.5723   23.4035    1.8971 C   0  0  0  0  0  0  0  0  0  0  0  0
   -6.7835   22.4565    2.0095 C   0  0  0  0  0  0  0  0  0  0  0  0
   -6.8322   21.5837    3.1989 N   0  0  0  0  0  0  0  0  0  0  0  0
   -8.0545   20.7592    3.2093 C   0  0  0  0  0  0  0  0  0  0  0  0
   -9.0083   21.0245    4.3809 C   0  0  0  0  0  0  0  0  0  0  0  0
   -9.1447   22.5156    4.6553 C   0  0  0  0  0  0  0  0  0  0  0  0
   -7.7813   23.1714    4.8830 C   0  0  0  0  0  0  0  0  0  0  0  0
   -6.6154   22.2692    4.4719 C   0  0  0  0  0  0  0  0  0  0  0  0
   -1.5524   28.3795    7.4537 C   0  0  0  0  0  0  0  0  0  0  0  0
   -0.1549   28.4220    7.4198 C   0  0  0  0  0  0  0  0  0  0  0  0
    0.5315   29.3936    8.1478 C   0  0  0  0  0  0  0  0  0  0  0  0
   -0.1740   30.3196    8.9196 C   0  0  0  0  0  0  0  0  0  0  0  0
   -1.5758   30.2808    8.9797 C   0  0  0  0  0  0  0  0  0  0  0  0
   -2.2601   29.2955    8.2461 C   0  0  0  0  0  0  0  0  0  0  0  0
   -2.3337   31.2754    9.8240 C   0  0  0  0  0  0  0  0  0  0  0  0
   -3.5292   31.7442    9.1464 N   0  0  0  0  0  0  0  0  0  0  0  0
   -4.7726   31.1763    9.1996 C   0  0  0  0  0  0  0  0  0  0  0  0
   -5.5625   31.9829    8.4111 C   0  0  0  0  0  0  0  0  0  0  0  0
   -4.8332   33.0224    7.8922 N   0  0  0  0  0  0  0  0  0  0  0  0
   -3.6143   32.8571    8.3539 C   0  0  0  0  0  0  0  0  0  0  0  0
  1  2  2  0  0  0
  2  3  1  0  0  0
  3  5  1  0  0  0
  5  6  1  0  0  0
  6  7  2  0  0  0
  7  8  1  0  0  0
  8 11  1  0  0  0
 11 12  1  0  0  0
 12 13  1  0  0  0
 13 14  1  0  0  0
 14 15  1  0  0  0
 15 16  1  0  0  0
 16 17  1  0  0  0
 17 18  1  0  0  0
 18 19  1  0  0  0
  8  9  2  0  0  0
  9 10  1  0  0  0
  2 20  1  0  0  0
 20 21  1  0  0  0
 21 22  2  0  0  0
 22 23  1  0  0  0
 23 24  2  0  0  0
 24 26  1  0  0  0
 26 27  1  0  0  0
 27 28  1  0  0  0
 28 29  2  0  0  0
 29 30  1  0  0  0
 30 31  2  0  0  0
 24 25  1  0  0  0
 10  5  2  0  0  0
 25 20  2  0  0  0
 19 14  1  0  0  0
 31 27  1  0  0  0
  3  4  1  0  0  0
M  END
> <minimizedAffinity>
-9.42878

$$$$
OCNT-2309844


 25 27  0  0  0  0  0  0  0  0999 V2000
   -5.0293   26.1293    5.2657 N   0  0  0  0  0  0  0  0  0  0  0  0
   -5.3360   27.4676    5.3902 C   0  0  0  0  0  0  0  0  0  0  0  0
   -6.3527   28.0013    4.9591 O   0  0  0  0  0  0  0  0  0  0  0  0
   -4.3697   28.2136    6.0813 N   0  0  0  0  0  0  0  0  0  0  0  0
   -3.0069   27.7386    6.3299 C   0  0  0  0  0  0  0  0  0  0  0  0
   -2.0601   28.8312    6.8213 C   0  0  0  0  0  0  0  0  0  0  0  0
   -2.6979   29.6126    7.9753 C   0  0  0  0  0  0  0  0  0  0  0  0
   -1.7322   30.6787    8.5002 C   0  0  0  0  0  0  0  0  0  0  0  0
   -4.0495   30.2422    7.5442 C   0  0  0  0  0  0  0  0  0  0  0  0
   -4.6145   29.6512    6.2356 C   0  0  0  0  0  0  0  0  0  0  0  0
   -4.3207   25.7940    5.8906 H   0  0  0  0  0  0  0  0  0  0  0  0
   -6.0163   23.8329    2.4843 C   0  0  0  0  0  0  0  0  0  0  0  0
   -7.0767   23.1412    3.0756 C   0  0  0  0  0  0  0  0  0  0  0  0
   -7.4722   23.4430    4.3752 C   0  0  0  0  0  0  0  0  0  0  0  0
   -6.8055   24.4287    5.1020 C   0  0  0  0  0  0  0  0  0  0  0  0
   -5.7305   25.1289    4.5441 C   0  0  0  0  0  0  0  0  0  0  0  0
   -5.3427   24.8457    3.2083 C   0  0  0  0  0  0  0  0  0  0  0  0
   -4.2116   25.6076    2.5564 C   0  0  0  0  0  0  0  0  0  0  0  0
   -6.1237   22.4984    0.5023 C   0  0  0  0  0  0  0  0  0  0  0  0
   -5.5687   23.6013    1.2072 O   0  0  0  0  0  0  0  0  0  0  0  0
   -5.0241   30.1913    8.6356 N   0  0  0  0  0  0  0  0  0  0  0  0
   -5.2091   29.1413    9.4943 C   0  0  0  0  0  0  0  0  0  0  0  0
   -6.2312   29.5366   10.3262 C   0  0  0  0  0  0  0  0  0  0  0  0
   -6.6747   30.7893    9.9895 N   0  0  0  0  0  0  0  0  0  0  0  0
   -5.9251   31.1634    8.9775 C   0  0  0  0  0  0  0  0  0  0  0  0
 19 20  1  0  0  0
 20 12  1  0  0  0
 12 13  1  0  0  0
 13 14  2  0  0  0
 14 15  1  0  0  0
 15 16  2  0  0  0
 16  1  1  0  0  0
  1  2  1  0  0  0
  2  3  2  0  0  0
  2  4  1  0  0  0
  4  5  1  0  0  0
  5  6  1  0  0  0
  6  7  1  0  0  0
  7  8  1  0  0  0
  7  9  1  0  0  0
  9 21  1  0  0  0
 21 22  1  0  0  0
 22 23  2  0  0  0
 23 24  1  0  0  0
 24 25  2  0  0  0
  9 10  1  0  0  0
 16 17  1  0  0  0
 17 18  1  0  0  0
 17 12  2  0  0  0
 10  4  1  0  0  0
 25 21  1  0  0  0
  1 11  1  0  0  0
M  END
> <minimizedAffinity>
-8.46273

$$$$
OCNT-2309846


 29 31  0  0  0  0  0  0  0  0999 V2000
   -1.5439   26.9780    5.8775 C   0  0  0  0  0  0  0  0  0  0  0  0
   -0.8252   26.0828    5.4416 O   0  0  0  0  0  0  0  0  0  0  0  0
   -2.8177   27.3054    5.4462 N   0  0  0  0  0  0  0  0  0  0  0  0
   -3.2915   28.0299    5.9911 H   0  0  0  0  0  0  0  0  0  0  0  0
   -3.5616   26.7168    4.4084 C   0  0  0  0  0  0  0  0  0  0  0  0
   -4.9558   26.7816    4.5083 C   0  0  0  0  0  0  0  0  0  0  0  0
   -5.7710   26.2245    3.5183 C   0  0  0  0  0  0  0  0  0  0  0  0
   -5.2039   25.5888    2.4067 C   0  0  0  0  0  0  0  0  0  0  0  0
   -3.8076   25.5325    2.3063 C   0  0  0  0  0  0  0  0  0  0  0  0
   -2.9944   26.0904    3.2997 C   0  0  0  0  0  0  0  0  0  0  0  0
   -6.0744   24.9956    1.3293 C   0  0  0  0  0  0  0  0  0  0  0  0
   -6.2864   23.5746    1.5348 N   0  0  0  0  0  0  0  0  0  0  0  0
   -7.1525   23.0001    2.4241 C   0  0  0  0  0  0  0  0  0  0  0  0
   -7.0339   21.6467    2.2093 C   0  0  0  0  0  0  0  0  0  0  0  0
   -6.1351   21.3895    1.2064 N   0  0  0  0  0  0  0  0  0  0  0  0
   -5.7016   22.5682    0.8198 C   0  0  0  0  0  0  0  0  0  0  0  0
   -1.0701   27.8738    7.0280 C   0  0  0  0  0  0  0  0  0  0  0  0
   -2.0578   30.0260    7.7170 C   0  0  0  0  0  0  0  0  0  0  0  0
   -1.0561   30.6422    7.3633 O   0  0  0  0  0  0  0  0  0  0  0  0
   -2.1623   28.6587    7.5803 N   0  0  0  0  0  0  0  0  0  0  0  0
   -3.0815   28.2349    7.5802 H   0  0  0  0  0  0  0  0  0  0  0  0
   -4.8051   34.2167    8.2980 C   0  0  0  0  0  0  0  0  0  0  0  0
   -4.5784   32.7543    8.5489 C   0  0  0  0  0  0  0  0  0  0  0  0
   -5.5375   32.0008    9.2396 C   0  0  0  0  0  0  0  0  0  0  0  0
   -5.3620   30.6263    9.4476 C   0  0  0  0  0  0  0  0  0  0  0  0
   -6.4142   29.8242   10.1552 C   0  0  0  0  0  0  0  0  0  0  0  0
   -4.2214   29.9993    8.9316 C   0  0  0  0  0  0  0  0  0  0  0  0
   -3.2535   30.7398    8.2419 C   0  0  0  0  0  0  0  0  0  0  0  0
   -3.4418   32.1131    8.0388 C   0  0  0  0  0  0  0  0  0  0  0  0
 22 23  1  0  0  0
 23 24  1  0  0  0
 24 25  2  0  0  0
 25 26  1  0  0  0
 25 27  1  0  0  0
 27 28  2  0  0  0
 28 18  1  0  0  0
 18 19  2  0  0  0
 18 20  1  0  0  0
 20 17  1  0  0  0
 17  1  1  0  0  0
  1  2  2  0  0  0
  1  3  1  0  0  0
  3  5  1  0  0  0
  5  6  1  0  0  0
  6  7  2  0  0  0
  7  8  1  0  0  0
  8 11  1  0  0  0
 11 12  1  0  0  0
 12 13  1  0  0  0
 13 14  2  0  0  0
 14 15  1  0  0  0
 15 16  2  0  0  0
  8  9  2  0  0  0
  9 10  1  0  0  0
 28 29  1  0  0  0
 29 23  2  0  0  0
 10  5  2  0  0  0
 16 12  1  0  0  0
 20 21  1  0  0  0
  3  4  1  0  0  0
M  END
> <minimizedAffinity>
-9.36713

$$$$
OCNT-2309864


 33 36  0  0  0  0  0  0  0  0999 V2000
   -5.8229   24.4986    1.1950 C   0  0  0  0  0  0  0  0  0  0  0  0
   -6.5065   25.0007    0.0749 C   0  0  0  0  0  0  0  0  0  0  0  0
   -7.2938   24.1559   -0.7029 C   0  0  0  0  0  0  0  0  0  0  0  0
   -7.4089   22.8121   -0.3598 C   0  0  0  0  0  0  0  0  0  0  0  0
   -6.7268   22.3108    0.7524 C   0  0  0  0  0  0  0  0  0  0  0  0
   -5.9102   23.1409    1.5399 C   0  0  0  0  0  0  0  0  0  0  0  0
   -5.8155   26.2331    2.8539 N   0  0  0  0  0  0  0  0  0  0  0  0
   -5.0508   25.4771    1.9899 C   0  0  0  0  0  0  0  0  0  0  0  0
   -3.8405   25.5747    1.8530 O   0  0  0  0  0  0  0  0  0  0  0  0
   -6.8077   26.2982    2.6305 H   0  0  0  0  0  0  0  0  0  0  0  0
   -5.2457   27.3409    3.6047 C   0  0  0  0  0  0  0  0  0  0  0  0
   -7.0088   29.8517    5.5692 C   0  0  0  0  0  0  0  0  0  0  0  0
   -6.1743   28.7931    6.2771 C   0  0  0  0  0  0  0  0  0  0  0  0
   -6.5034   28.7482    7.7652 C   0  0  0  0  0  0  0  0  0  0  0  0
   -4.7868   29.1042    6.1093 O   0  0  0  0  0  0  0  0  0  0  0  0
   -4.1630   27.8492    5.8371 C   0  0  0  0  0  0  0  0  0  0  0  0
   -5.2302   27.0611    5.1126 C   0  0  0  0  0  0  0  0  0  0  0  0
   -6.4561   27.5051    5.7106 O   0  0  0  0  0  0  0  0  0  0  0  0
   -5.0608   22.3274    2.8949 S   0  0  0  0  0  0  0  0  0  0  0  0
   -6.4432   21.6000    3.8385 C   0  0  0  0  0  0  0  0  0  0  0  0
   -7.0463   22.5998    4.8163 C   0  0  0  0  0  0  0  0  0  0  0  0
   -6.6326   23.7563    4.8726 O   0  0  0  0  0  0  0  0  0  0  0  0
   -8.0638   22.0511    5.5810 N   0  0  0  0  0  0  0  0  0  0  0  0
   -8.2085   21.0537    5.4744 H   0  0  0  0  0  0  0  0  0  0  0  0
   -8.8547   22.6945    6.5538 C   0  0  0  0  0  0  0  0  0  0  0  0
   -9.8062   23.6279    6.0828 C   0  0  0  0  0  0  0  0  0  0  0  0
  -10.6373   24.3258    6.9669 C   0  0  0  0  0  0  0  0  0  0  0  0
  -10.4925   24.0737    8.3107 C   0  0  0  0  0  0  0  0  0  0  0  0
  -11.2050   24.6555    9.3124 O   0  0  0  0  0  0  0  0  0  0  0  0
  -10.6055   24.0339   10.4674 C   0  0  0  0  0  0  0  0  0  0  0  0
   -9.5850   23.0706   10.1349 O   0  0  0  0  0  0  0  0  0  0  0  0
   -9.5680   23.1712    8.7782 C   0  0  0  0  0  0  0  0  0  0  0  0
   -8.7361   22.4665    7.9278 C   0  0  0  0  0  0  0  0  0  0  0  0
 12 13  1  0  0  0
 13 14  1  0  0  0
 13 15  1  0  0  0
 15 16  1  0  0  0
 16 17  1  0  0  0
 17 11  1  0  0  0
 11  7  1  0  0  0
  7  8  1  0  0  0
  8  9  2  0  0  0
  8  1  1  0  0  0
  1  2  2  0  0  0
  2  3  1  0  0  0
  3  4  2  0  0  0
  4  5  1  0  0  0
  5  6  2  0  0  0
  6 19  1  0  0  0
 19 20  1  0  0  0
 20 21  1  0  0  0
 21 22  2  0  0  0
 21 23  1  0  0  0
 23 25  1  0  0  0
 25 26  1  0  0  0
 26 27  2  0  0  0
 27 28  1  0  0  0
 28 29  1  0  0  0
 29 30  1  0  0  0
 30 31  1  0  0  0
 31 32  1  0  0  0
 32 33  1  0  0  0
 17 18  1  0  0  0
 18 13  1  0  0  0
  6  1  1  0  0  0
 33 25  2  0  0  0
 32 28  2  0  0  0
  7 10  1  0  0  0
 23 24  1  0  0  0
M  END
> <minimizedAffinity>
-9.45773

$$$$
OCNT-2309866


 30 33  0  0  0  0  0  0  0  0999 V2000
   -2.0263   26.0337    6.7584 O   0  0  0  0  0  0  0  0  0  0  0  0
   -2.3227   27.1893    6.4802 C   0  0  0  0  0  0  0  0  0  0  0  0
   -3.1782   27.6088    5.4770 N   0  0  0  0  0  0  0  0  0  0  0  0
   -3.2144   28.6016    5.2892 H   0  0  0  0  0  0  0  0  0  0  0  0
   -3.9471   26.7985    4.6153 C   0  0  0  0  0  0  0  0  0  0  0  0
   -5.2671   26.4229    4.8665 C   0  0  0  0  0  0  0  0  0  0  0  0
   -5.9641   25.6202    3.9546 C   0  0  0  0  0  0  0  0  0  0  0  0
   -5.3555   25.1950    2.7731 C   0  0  0  0  0  0  0  0  0  0  0  0
   -4.0318   25.5588    2.5225 C   0  0  0  0  0  0  0  0  0  0  0  0
   -3.3347   26.3583    3.4352 C   0  0  0  0  0  0  0  0  0  0  0  0
   -6.2699   24.1785    1.6308 S   0  0  0  0  0  0  0  0  0  0  0  0
   -5.8824   22.5141    2.2921 C   0  0  0  0  0  0  0  0  0  0  0  0
   -7.1191   21.8379    2.9036 C   0  0  0  0  0  0  0  0  0  0  0  0
   -7.0076   21.6795    4.3618 N   0  0  0  0  0  0  0  0  0  0  0  0
   -5.6952   22.1108    4.8526 C   0  0  0  0  0  0  0  0  0  0  0  0
   -5.9084   22.2193    6.3539 C   0  0  0  0  0  0  0  0  0  0  0  0
   -7.3977   22.4960    6.5230 C   0  0  0  0  0  0  0  0  0  0  0  0
   -7.9683   22.4924    5.1119 C   0  0  0  0  0  0  0  0  0  0  0  0
   -1.6768   28.2858    7.2587 C   0  0  0  0  0  0  0  0  0  0  0  0
   -0.3199   28.5983    7.1144 C   0  0  0  0  0  0  0  0  0  0  0  0
    0.2369   29.6388    7.8593 C   0  0  0  0  0  0  0  0  0  0  0  0
   -0.5571   30.3757    8.7405 C   0  0  0  0  0  0  0  0  0  0  0  0
   -1.9227   30.0884    8.8830 C   0  0  0  0  0  0  0  0  0  0  0  0
   -2.4749   29.0403    8.1305 C   0  0  0  0  0  0  0  0  0  0  0  0
   -2.7925   30.9051    9.8058 C   0  0  0  0  0  0  0  0  0  0  0  0
   -3.7343   31.7245    9.0648 N   0  0  0  0  0  0  0  0  0  0  0  0
   -3.4370   32.8204    8.3020 C   0  0  0  0  0  0  0  0  0  0  0  0
   -4.6430   33.2244    7.7783 C   0  0  0  0  0  0  0  0  0  0  0  0
   -5.6553   32.3960    8.1912 N   0  0  0  0  0  0  0  0  0  0  0  0
   -5.0779   31.5008    8.9604 C   0  0  0  0  0  0  0  0  0  0  0  0
  1  2  2  0  0  0
  2  3  1  0  0  0
  3  5  1  0  0  0
  5  6  1  0  0  0
  6  7  2  0  0  0
  7  8  1  0  0  0
  8 11  1  0  0  0
 11 12  1  0  0  0
 12 13  1  0  0  0
 13 14  1  0  0  0
 14 15  1  0  0  0
 15 16  1  0  0  0
 16 17  1  0  0  0
 17 18  1  0  0  0
  8  9  2  0  0  0
  9 10  1  0  0  0
  2 19  1  0  0  0
 19 20  1  0  0  0
 20 21  2  0  0  0
 21 22  1  0  0  0
 22 23  2  0  0  0
 23 25  1  0  0  0
 25 26  1  0  0  0
 26 27  1  0  0  0
 27 28  2  0  0  0
 28 29  1  0  0  0
 29 30  2  0  0  0
 23 24  1  0  0  0
 10  5  2  0  0  0
 24 19  2  0  0  0
 18 14  1  0  0  0
 30 26  1  0  0  0
  3  4  1  0  0  0
M  END
> <minimizedAffinity>
-8.81296

$$$$
OCNT-2309867


 28 31  0  0  0  0  0  0  0  0999 V2000
   -5.2897   29.9748    7.7102 N   0  0  0  0  0  0  0  0  0  0  0  0
   -4.9586   31.3295    7.7562 C   0  0  0  0  0  0  0  0  0  0  0  0
   -5.7288   32.1520    8.2580 O   0  0  0  0  0  0  0  0  0  0  0  0
   -6.2484   28.9044    9.7270 C   0  0  0  0  0  0  0  0  0  0  0  0
   -6.5221   29.5410    8.3730 C   0  0  0  0  0  0  0  0  0  0  0  0
   -4.5464   28.9550    6.9671 C   0  0  0  0  0  0  0  0  0  0  0  0
   -5.0671   28.7042    5.5693 C   0  0  0  0  0  0  0  0  0  0  0  0
   -5.6280   29.7168    4.7803 C   0  0  0  0  0  0  0  0  0  0  0  0
   -6.1327   29.4306    3.5124 C   0  0  0  0  0  0  0  0  0  0  0  0
   -6.0917   28.1272    3.0181 C   0  0  0  0  0  0  0  0  0  0  0  0
   -5.5482   27.0850    3.7821 C   0  0  0  0  0  0  0  0  0  0  0  0
   -5.0453   27.3930    5.0593 C   0  0  0  0  0  0  0  0  0  0  0  0
   -5.5057   25.7091    3.2636 C   0  0  0  0  0  0  0  0  0  0  0  0
   -5.4110   25.4561    1.8902 C   0  0  0  0  0  0  0  0  0  0  0  0
   -5.3766   24.1424    1.4482 C   0  0  0  0  0  0  0  0  0  0  0  0
   -5.4245   23.0732    2.2686 N   0  0  0  0  0  0  0  0  0  0  0  0
   -5.5169   23.3303    3.5895 C   0  0  0  0  0  0  0  0  0  0  0  0
   -5.5613   24.6080    4.1259 C   0  0  0  0  0  0  0  0  0  0  0  0
   -3.6460   31.7644    7.1340 C   0  0  0  0  0  0  0  0  0  0  0  0
   -2.5149   31.4489    7.9817 N   0  0  0  0  0  0  0  0  0  0  0  0
   -2.5251   31.8429    9.2729 N   0  0  0  0  0  0  0  0  0  0  0  0
   -1.4428   31.3402    9.8520 N   0  0  0  0  0  0  0  0  0  0  0  0
   -0.7580   30.6124    8.9157 C   0  0  0  0  0  0  0  0  0  0  0  0
    0.4325   29.8793    9.0192 C   0  0  0  0  0  0  0  0  0  0  0  0
    0.9100   29.2153    7.8819 C   0  0  0  0  0  0  0  0  0  0  0  0
    0.2177   29.2824    6.6700 C   0  0  0  0  0  0  0  0  0  0  0  0
   -0.9737   30.0084    6.5500 C   0  0  0  0  0  0  0  0  0  0  0  0
   -1.4310   30.6598    7.7001 C   0  0  0  0  0  0  0  0  0  0  0  0
  4  5  1  0  0  0
  5  1  1  0  0  0
  1  6  1  0  0  0
  6  7  1  0  0  0
  7  8  2  0  0  0
  8  9  1  0  0  0
  9 10  2  0  0  0
 10 11  1  0  0  0
 11 13  1  0  0  0
 13 14  2  0  0  0
 14 15  1  0  0  0
 15 16  2  0  0  0
 16 17  1  0  0  0
 17 18  2  0  0  0
 11 12  2  0  0  0
  1  2  1  0  0  0
  2  3  2  0  0  0
  2 19  1  0  0  0
 19 20  1  0  0  0
 20 21  1  0  0  0
 21 22  2  0  0  0
 22 23  1  0  0  0
 23 24  2  0  0  0
 24 25  1  0  0  0
 25 26  2  0  0  0
 26 27  1  0  0  0
 27 28  2  0  0  0
 12  7  1  0  0  0
 28 20  1  0  0  0
 18 13  1  0  0  0
 28 23  1  0  0  0
M  END
> <minimizedAffinity>
-9.94322

$$$$
OCNT-2309871


 26 28  0  0  0  0  0  0  0  0999 V2000
   -4.1298   26.8582    4.8273 C   0  0  0  0  0  0  0  0  0  0  0  0
   -3.2199   26.4873    3.8282 C   0  0  0  0  0  0  0  0  0  0  0  0
   -3.4500   25.3601    3.0353 C   0  0  0  0  0  0  0  0  0  0  0  0
   -4.5900   24.5816    3.2480 C   0  0  0  0  0  0  0  0  0  0  0  0
   -5.5124   24.9578    4.2275 C   0  0  0  0  0  0  0  0  0  0  0  0
   -6.9466   24.0362    4.5029 Cl  0  0  0  0  0  0  0  0  0  0  0  0
   -5.2790   26.0875    5.0196 C   0  0  0  0  0  0  0  0  0  0  0  0
   -3.0250   28.0935    6.7164 C   0  0  0  0  0  0  0  0  0  0  0  0
   -2.4016   27.1753    7.2401 O   0  0  0  0  0  0  0  0  0  0  0  0
   -3.8161   28.0047    5.5804 N   0  0  0  0  0  0  0  0  0  0  0  0
   -4.2592   28.8758    5.3020 H   0  0  0  0  0  0  0  0  0  0  0  0
   -0.3483   29.5474    7.0314 C   0  0  0  0  0  0  0  0  0  0  0  0
   -1.5322   29.7568    7.8641 N   0  0  0  0  0  0  0  0  0  0  0  0
   -1.3667   30.6587    8.9155 C   0  0  0  0  0  0  0  0  0  0  0  0
   -0.2604   31.0647    9.2715 O   0  0  0  0  0  0  0  0  0  0  0  0
   -2.5997   31.0521    9.6972 C   0  0  0  0  0  0  0  0  0  0  0  0
   -3.8268   31.1832    8.8208 C   0  0  0  0  0  0  0  0  0  0  0  0
   -4.0434   29.8723    8.0948 C   0  0  0  0  0  0  0  0  0  0  0  0
   -2.8426   29.5518    7.2013 C   0  0  0  0  0  0  0  0  0  0  0  0
   -4.8530   23.4888    2.4525 O   0  0  0  0  0  0  0  0  0  0  0  0
   -5.7382   23.6702    1.4138 C   0  0  0  0  0  0  0  0  0  0  0  0
   -6.5605   22.5954    1.0962 C   0  0  0  0  0  0  0  0  0  0  0  0
   -7.4414   22.7453    0.0407 C   0  0  0  0  0  0  0  0  0  0  0  0
   -7.5381   23.8699   -0.7017 N   0  0  0  0  0  0  0  0  0  0  0  0
   -6.7029   24.8837   -0.3861 C   0  0  0  0  0  0  0  0  0  0  0  0
   -5.7884   24.8337    0.6511 C   0  0  0  0  0  0  0  0  0  0  0  0
 12 13  1  0  0  0
 13 14  1  0  0  0
 14 15  2  0  0  0
 14 16  1  0  0  0
 16 17  1  0  0  0
 17 18  1  0  0  0
 18 19  1  0  0  0
 19  8  1  0  0  0
  8  9  2  0  0  0
  8 10  1  0  0  0
 10  1  1  0  0  0
  1  2  1  0  0  0
  2  3  2  0  0  0
  3  4  1  0  0  0
  4 20  1  0  0  0
 20 21  1  0  0  0
 21 22  2  0  0  0
 22 23  1  0  0  0
 23 24  2  0  0  0
 24 25  1  0  0  0
 25 26  2  0  0  0
  4  5  2  0  0  0
  5  6  1  0  0  0
  5  7  1  0  0  0
 19 13  1  0  0  0
  7  1  2  0  0  0
 26 21  1  0  0  0
 10 11  1  0  0  0
M  END
> <minimizedAffinity>
-9.00726

$$$$
OCNT-2309879


 24 27  0  0  0  0  0  0  0  0999 V2000
   -4.8668   34.1760    8.3041 C   0  0  0  0  0  0  0  0  0  0  0  0
   -4.3191   32.7549    8.2770 C   0  0  0  0  0  0  0  0  0  0  0  0
   -4.2729   32.2139    6.8498 C   0  0  0  0  0  0  0  0  0  0  0  0
   -3.7639   30.8402    6.8761 N   0  0  0  0  0  0  0  0  0  0  0  0
   -4.4413   29.8802    6.1289 C   0  0  0  0  0  0  0  0  0  0  0  0
   -5.2118   30.2219    5.2228 O   0  0  0  0  0  0  0  0  0  0  0  0
   -2.5672   30.6984    7.6363 C   0  0  0  0  0  0  0  0  0  0  0  0
   -1.6365   29.6836    7.3989 C   0  0  0  0  0  0  0  0  0  0  0  0
   -0.4558   29.5974    8.1449 C   0  0  0  0  0  0  0  0  0  0  0  0
   -0.1738   30.5463    9.1222 C   0  0  0  0  0  0  0  0  0  0  0  0
   -1.0624   31.5955    9.3380 C   0  0  0  0  0  0  0  0  0  0  0  0
   -2.2451   31.6782    8.5976 C   0  0  0  0  0  0  0  0  0  0  0  0
   -3.0128   32.7864    8.8672 O   0  0  0  0  0  0  0  0  0  0  0  0
   -4.3879   28.4154    6.5653 C   0  0  0  0  0  0  0  0  0  0  0  0
   -3.7888   27.4690    5.5659 C   0  0  0  0  0  0  0  0  0  0  0  0
   -2.5517   26.8488    5.6801 C   0  0  0  0  0  0  0  0  0  0  0  0
   -2.3651   26.0392    4.5909 N   0  0  0  0  0  0  0  0  0  0  0  0
   -3.4670   26.0828    3.7882 C   0  0  0  0  0  0  0  0  0  0  0  0
   -3.5986   25.3750    2.6512 N   0  0  0  0  0  0  0  0  0  0  0  0
   -4.7898   25.5761    2.0442 C   0  0  0  0  0  0  0  0  0  0  0  0
   -5.8028   26.4048    2.5052 C   0  0  0  0  0  0  0  0  0  0  0  0
   -5.6102   27.1123    3.6928 C   0  0  0  0  0  0  0  0  0  0  0  0
   -4.3854   26.9550    4.3654 C   0  0  0  0  0  0  0  0  0  0  0  0
   -1.5594   25.4635    4.3963 H   0  0  0  0  0  0  0  0  0  0  0  0
  1  2  1  0  0  0
  2  3  1  0  0  0
  3  4  1  0  0  0
  4  5  1  0  0  0
  5  6  2  0  0  0
  5 14  1  0  0  0
 14 15  1  0  0  0
 15 16  2  0  0  0
 16 17  1  0  0  0
 17 18  1  0  0  0
 18 19  1  0  0  0
 19 20  2  0  0  0
 20 21  1  0  0  0
 21 22  2  0  0  0
 22 23  1  0  0  0
  4  7  1  0  0  0
  7  8  2  0  0  0
  8  9  1  0  0  0
  9 10  2  0  0  0
 10 11  1  0  0  0
 11 12  2  0  0  0
 12 13  1  0  0  0
 13  2  1  0  0  0
 23 15  1  0  0  0
 12  7  1  0  0  0
 23 18  2  0  0  0
 17 24  1  0  0  0
M  END
> <minimizedAffinity>
-9.29544

$$$$
OCNT-2309880


 25 27  0  0  0  0  0  0  0  0999 V2000
   -5.1638   27.8491    5.6686 C   0  0  0  0  0  0  0  0  0  0  0  0
   -6.0796   28.0876    6.4533 O   0  0  0  0  0  0  0  0  0  0  0  0
   -3.8911   28.3726    5.7339 N   0  0  0  0  0  0  0  0  0  0  0  0
   -3.2557   28.1980    4.9603 H   0  0  0  0  0  0  0  0  0  0  0  0
   -7.2966   21.2291    2.7838 C   0  0  0  0  0  0  0  0  0  0  0  0
   -6.3991   22.3868    3.1192 C   0  0  0  0  0  0  0  0  0  0  0  0
   -5.0744   22.4126    2.6318 C   0  0  0  0  0  0  0  0  0  0  0  0
   -4.2304   23.4878    2.9080 C   0  0  0  0  0  0  0  0  0  0  0  0
   -4.7483   24.5174    3.6692 C   0  0  0  0  0  0  0  0  0  0  0  0
   -6.0635   24.5451    4.1353 C   0  0  0  0  0  0  0  0  0  0  0  0
   -6.8959   23.4679    3.8685 C   0  0  0  0  0  0  0  0  0  0  0  0
   -6.4185   25.7615    4.9474 C   0  0  0  0  0  0  0  0  0  0  0  0
   -5.4012   26.8473    4.5689 C   0  0  0  0  0  0  0  0  0  0  0  0
   -3.9011   25.9849    4.1085 S   0  0  0  0  0  0  0  0  0  0  0  0
   -3.1155   25.6786    5.2932 O   0  0  0  0  0  0  0  0  0  0  0  0
   -3.3292   26.5593    2.9119 O   0  0  0  0  0  0  0  0  0  0  0  0
   -3.4118   29.2642    6.7024 C   0  0  0  0  0  0  0  0  0  0  0  0
   -2.7765   28.8077    7.7963 N   0  0  0  0  0  0  0  0  0  0  0  0
   -2.2701   29.7285    8.6540 C   0  0  0  0  0  0  0  0  0  0  0  0
   -2.3629   31.0987    8.4625 C   0  0  0  0  0  0  0  0  0  0  0  0
   -1.6831   32.1957    9.5928 Cl  0  0  0  0  0  0  0  0  0  0  0  0
   -3.0268   31.5630    7.3360 C   0  0  0  0  0  0  0  0  0  0  0  0
   -3.5709   30.6352    6.4553 C   0  0  0  0  0  0  0  0  0  0  0  0
   -4.2624   31.1236    5.3785 O   0  0  0  0  0  0  0  0  0  0  0  0
   -5.0459   30.5620    5.2220 H   0  0  0  0  0  0  0  0  0  0  0  0
  5  6  1  0  0  0
  6  7  1  0  0  0
  7  8  2  0  0  0
  8  9  1  0  0  0
  9 10  2  0  0  0
 10 11  1  0  0  0
 10 12  1  0  0  0
 12 13  1  0  0  0
 13  1  1  0  0  0
  1  2  2  0  0  0
  1  3  1  0  0  0
  3 17  1  0  0  0
 17 18  1  0  0  0
 18 19  2  0  0  0
 19 20  1  0  0  0
 20 21  1  0  0  0
 20 22  2  0  0  0
 22 23  1  0  0  0
 23 24  1  0  0  0
 13 14  1  0  0  0
 14 15  2  0  0  0
 14 16  2  0  0  0
 11  6  2  0  0  0
 23 17  2  0  0  0
 14  9  1  0  0  0
  3  4  1  0  0  0
 24 25  1  0  0  0
M  END
> <minimizedAffinity>
-9.42868

$$$$
OCNT-2309885


 22 24  0  0  0  0  0  0  0  0999 V2000
   -5.2397   24.9582    2.5508 C   0  0  0  0  0  0  0  0  0  0  0  0
   -5.7715   24.9665    3.8520 C   0  0  0  0  0  0  0  0  0  0  0  0
   -5.1064   25.6190    4.8942 C   0  0  0  0  0  0  0  0  0  0  0  0
   -3.8860   26.2522    4.6486 C   0  0  0  0  0  0  0  0  0  0  0  0
   -3.3523   26.2735    3.3585 C   0  0  0  0  0  0  0  0  0  0  0  0
   -4.0228   25.6229    2.3194 C   0  0  0  0  0  0  0  0  0  0  0  0
   -3.1672   26.9644    5.7294 C   0  0  0  0  0  0  0  0  0  0  0  0
   -2.2580   26.3653    6.2982 O   0  0  0  0  0  0  0  0  0  0  0  0
   -3.5633   28.2641    6.0609 N   0  0  0  0  0  0  0  0  0  0  0  0
   -2.8395   28.9401    7.1407 C   0  0  0  0  0  0  0  0  0  0  0  0
   -3.6485   28.9728    8.4354 C   0  0  0  0  0  0  0  0  0  0  0  0
   -5.2335   29.8806    8.2742 S   0  0  0  0  0  0  0  0  0  0  0  0
   -5.2976   30.0659    6.4584 C   0  0  0  0  0  0  0  0  0  0  0  0
   -4.8947   28.7875    5.7201 C   0  0  0  0  0  0  0  0  0  0  0  0
   -6.0292   22.8627    1.3661 C   0  0  0  0  0  0  0  0  0  0  0  0
   -6.7066   22.2624    0.2920 C   0  0  0  0  0  0  0  0  0  0  0  0
   -7.2939   23.0449   -0.7014 C   0  0  0  0  0  0  0  0  0  0  0  0
   -7.2097   24.4312   -0.6289 C   0  0  0  0  0  0  0  0  0  0  0  0
   -6.5379   25.0359    0.4359 C   0  0  0  0  0  0  0  0  0  0  0  0
   -5.9342   24.2678    1.4507 C   0  0  0  0  0  0  0  0  0  0  0  0
   -5.0169   21.2942    3.1722 N   0  0  0  0  0  0  0  0  0  0  0  0
   -5.4535   22.0053    2.3652 C   0  0  0  0  0  0  0  0  0  0  0  0
 21 22  3  0  0  0
 22 15  1  0  0  0
 15 16  2  0  0  0
 16 17  1  0  0  0
 17 18  2  0  0  0
 18 19  1  0  0  0
 19 20  2  0  0  0
 20  1  1  0  0  0
  1  2  1  0  0  0
  2  3  2  0  0  0
  3  4  1  0  0  0
  4  7  1  0  0  0
  7  8  2  0  0  0
  7  9  1  0  0  0
  9 10  1  0  0  0
 10 11  1  0  0  0
 11 12  1  0  0  0
 12 13  1  0  0  0
 13 14  1  0  0  0
  4  5  2  0  0  0
  5  6  1  0  0  0
 20 15  1  0  0  0
  6  1  2  0  0  0
 14  9  1  0  0  0
M  END
> <minimizedAffinity>
-9.04501

$$$$
OCNT-2309893


 22 24  0  0  0  0  0  0  0  0999 V2000
   -0.6520   25.8191    4.8728 C   0  0  0  0  0  0  0  0  0  0  0  0
   -1.8983   26.4685    5.2145 N   0  0  0  0  0  0  0  0  0  0  0  0
   -3.0009   26.0560    4.5551 N   0  0  0  0  0  0  0  0  0  0  0  0
   -3.9448   26.9093    4.9424 C   0  0  0  0  0  0  0  0  0  0  0  0
   -3.4706   27.8894    5.8457 C   0  0  0  0  0  0  0  0  0  0  0  0
   -2.1281   27.5649    6.0149 C   0  0  0  0  0  0  0  0  0  0  0  0
   -1.1558   28.2124    6.7884 N   0  0  0  0  0  0  0  0  0  0  0  0
   -0.0148   28.8534    6.3362 C   0  0  0  0  0  0  0  0  0  0  0  0
    0.6647   29.4043    7.4002 C   0  0  0  0  0  0  0  0  0  0  0  0
   -0.0633   29.0898    8.5612 C   0  0  0  0  0  0  0  0  0  0  0  0
   -1.1599   28.3574    8.1640 C   0  0  0  0  0  0  0  0  0  0  0  0
   -4.2656   28.9096    6.5042 C   0  0  0  0  0  0  0  0  0  0  0  0
   -4.1473   30.1077    6.2733 O   0  0  0  0  0  0  0  0  0  0  0  0
   -5.1521   28.4234    7.4397 N   0  0  0  0  0  0  0  0  0  0  0  0
   -5.1609   27.4342    7.6533 H   0  0  0  0  0  0  0  0  0  0  0  0
   -5.9039   29.3142    8.3058 C   0  0  0  0  0  0  0  0  0  0  0  0
   -5.1544   29.6871    9.5868 C   0  0  0  0  0  0  0  0  0  0  0  0
   -4.4236   30.9378    9.4507 N   0  0  0  0  0  0  0  0  0  0  0  0
   -3.0787   31.0950    9.6632 C   0  0  0  0  0  0  0  0  0  0  0  0
   -2.7701   32.4219    9.4588 C   0  0  0  0  0  0  0  0  0  0  0  0
   -3.9685   33.0835    9.0996 C   0  0  0  0  0  0  0  0  0  0  0  0
   -4.9741   32.1413    9.0958 C   0  0  0  0  0  0  0  0  0  0  0  0
  1  2  1  0  0  0
  2  3  1  0  0  0
  3  4  2  0  0  0
  4  5  1  0  0  0
  5 12  1  0  0  0
 12 13  2  0  0  0
 12 14  1  0  0  0
 14 16  1  0  0  0
 16 17  1  0  0  0
 17 18  1  0  0  0
 18 19  1  0  0  0
 19 20  2  0  0  0
 20 21  1  0  0  0
 21 22  2  0  0  0
  5  6  2  0  0  0
  6  7  1  0  0  0
  7  8  1  0  0  0
  8  9  2  0  0  0
  9 10  1  0  0  0
 10 11  2  0  0  0
  6  2  1  0  0  0
 11  7  1  0  0  0
 22 18  1  0  0  0
 14 15  1  0  0  0
M  END
> <minimizedAffinity>
-7.51836

$$$$
OCNT-2309900


 26 29  0  0  0  0  0  0  0  0999 V2000
   -4.6999   24.6952    2.9274 C   0  0  0  0  0  0  0  0  0  0  0  0
   -5.4519   23.3632    2.9080 C   0  0  0  0  0  0  0  0  0  0  0  0
   -5.1661   22.4099    1.9167 C   0  0  0  0  0  0  0  0  0  0  0  0
   -5.8778   21.2116    1.8552 C   0  0  0  0  0  0  0  0  0  0  0  0
   -6.8873   20.9530    2.7788 C   0  0  0  0  0  0  0  0  0  0  0  0
   -7.1799   21.8868    3.7712 C   0  0  0  0  0  0  0  0  0  0  0  0
   -6.4564   23.0832    3.8478 C   0  0  0  0  0  0  0  0  0  0  0  0
   -6.7492   24.0990    4.9103 C   0  0  0  0  0  0  0  0  0  0  0  0
   -5.4513   24.7632    5.3522 C   0  0  0  0  0  0  0  0  0  0  0  0
   -4.6527   25.3457    4.2628 N   0  0  0  0  0  0  0  0  0  0  0  0
   -3.4856   26.0653    4.5704 C   0  0  0  0  0  0  0  0  0  0  0  0
   -2.5286   26.1427    3.8059 O   0  0  0  0  0  0  0  0  0  0  0  0
   -3.5328   26.6998    5.7980 N   0  0  0  0  0  0  0  0  0  0  0  0
   -4.4261   27.1312    5.9914 H   0  0  0  0  0  0  0  0  0  0  0  0
   -2.4272   27.3407    6.3425 C   0  0  0  0  0  0  0  0  0  0  0  0
   -1.1489   26.8299    6.4326 C   0  0  0  0  0  0  0  0  0  0  0  0
   -0.3994   27.8225    7.0817 C   0  0  0  0  0  0  0  0  0  0  0  0
   -1.1153   28.9136    7.3426 N   0  0  0  0  0  0  0  0  0  0  0  0
   -2.3475   28.6310    6.8497 N   0  0  0  0  0  0  0  0  0  0  0  0
   -3.3711   29.6922    6.6792 C   0  0  0  0  0  0  0  0  0  0  0  0
   -2.8001   31.1336    6.5972 C   0  0  0  0  0  0  0  0  0  0  0  0
   -3.9957   31.5691    7.4714 C   0  0  0  0  0  0  0  0  0  0  0  0
   -4.0361   30.1231    8.0103 C   0  0  0  0  0  0  0  0  0  0  0  0
   -5.9163   26.9062    2.3609 C   0  0  0  0  0  0  0  0  0  0  0  0
   -5.2525   25.6419    1.8066 C   0  0  0  0  0  0  0  0  0  0  0  0
   -6.2163   24.9548    0.8338 C   0  0  0  0  0  0  0  0  0  0  0  0
 24 25  1  0  0  0
 25 26  1  0  0  0
 25  1  1  0  0  0
  1  2  1  0  0  0
  2  3  2  0  0  0
  3  4  1  0  0  0
  4  5  2  0  0  0
  5  6  1  0  0  0
  6  7  2  0  0  0
  7  8  1  0  0  0
  8  9  1  0  0  0
  9 10  1  0  0  0
 10 11  1  0  0  0
 11 12  2  0  0  0
 11 13  1  0  0  0
 13 15  1  0  0  0
 15 16  2  0  0  0
 16 17  1  0  0  0
 17 18  2  0  0  0
 18 19  1  0  0  0
 19 20  1  0  0  0
 20 21  1  0  0  0
 21 22  1  0  0  0
 22 23  1  0  0  0
 10  1  1  0  0  0
 19 15  1  0  0  0
 23 20  1  0  0  0
  7  2  1  0  0  0
 13 14  1  0  0  0
M  END
> <minimizedAffinity>
-9.22590

$$$$
OCNT-2309901


 30 33  0  0  0  0  0  0  0  0999 V2000
   -6.7367   29.1251    6.6236 C   0  0  0  0  0  0  0  0  0  0  0  0
   -5.8629   25.0870    4.4036 C   0  0  0  0  0  0  0  0  0  0  0  0
   -5.5783   25.2565    3.0528 C   0  0  0  0  0  0  0  0  0  0  0  0
   -5.5413   26.5354    2.4914 C   0  0  0  0  0  0  0  0  0  0  0  0
   -5.8154   27.6218    3.3329 C   0  0  0  0  0  0  0  0  0  0  0  0
   -5.8542   28.9680    3.0544 N   0  0  0  0  0  0  0  0  0  0  0  0
   -6.1773   29.6757    4.1802 C   0  0  0  0  0  0  0  0  0  0  0  0
   -6.3602   28.7830    5.2181 C   0  0  0  0  0  0  0  0  0  0  0  0
   -6.1262   27.4739    4.6860 C   0  0  0  0  0  0  0  0  0  0  0  0
   -6.1596   26.1741    5.2306 C   0  0  0  0  0  0  0  0  0  0  0  0
   -5.6761   29.3700    2.1445 H   0  0  0  0  0  0  0  0  0  0  0  0
   -5.9189   23.8185    4.9184 O   0  0  0  0  0  0  0  0  0  0  0  0
   -7.2326   23.5518    5.4254 C   0  0  0  0  0  0  0  0  0  0  0  0
   -5.7060   22.0568    6.7846 C   0  0  0  0  0  0  0  0  0  0  0  0
   -7.1447   22.4306    6.4576 C   0  0  0  0  0  0  0  0  0  0  0  0
   -6.0110   30.3686    7.1368 C   0  0  0  0  0  0  0  0  0  0  0  0
   -4.5706   30.1720    7.1715 N   0  0  0  0  0  0  0  0  0  0  0  0
   -3.9800   29.4538    8.1913 C   0  0  0  0  0  0  0  0  0  0  0  0
   -4.5889   29.0283    9.1660 O   0  0  0  0  0  0  0  0  0  0  0  0
   -4.0731   30.2150    6.2909 H   0  0  0  0  0  0  0  0  0  0  0  0
   -2.5475   29.1463    8.0335 C   0  0  0  0  0  0  0  0  0  0  0  0
   -1.6146   29.9279    8.7071 C   0  0  0  0  0  0  0  0  0  0  0  0
   -0.2729   29.7350    8.6714 N   0  0  0  0  0  0  0  0  0  0  0  0
    0.2225   28.7285    7.9196 C   0  0  0  0  0  0  0  0  0  0  0  0
   -0.6529   27.9270    7.1953 C   0  0  0  0  0  0  0  0  0  0  0  0
   -2.0398   28.1119    7.2238 C   0  0  0  0  0  0  0  0  0  0  0  0
   -2.5918   27.1444    6.3300 C   0  0  0  0  0  0  0  0  0  0  0  0
   -1.5585   26.3917    5.8215 C   0  0  0  0  0  0  0  0  0  0  0  0
   -0.3916   26.8701    6.3524 N   0  0  0  0  0  0  0  0  0  0  0  0
    0.5326   26.5170    6.1402 H   0  0  0  0  0  0  0  0  0  0  0  0
 14 15  1  0  0  0
 15 13  1  0  0  0
 13 12  1  0  0  0
 12  2  1  0  0  0
  2  3  2  0  0  0
  3  4  1  0  0  0
  4  5  2  0  0  0
  5  6  1  0  0  0
  6  7  1  0  0  0
  7  8  2  0  0  0
  8  1  1  0  0  0
  1 16  1  0  0  0
 16 17  1  0  0  0
 17 18  1  0  0  0
 18 19  2  0  0  0
 18 21  1  0  0  0
 21 22  1  0  0  0
 22 23  2  0  0  0
 23 24  1  0  0  0
 24 25  2  0  0  0
 25 26  1  0  0  0
 26 27  1  0  0  0
 27 28  2  0  0  0
 28 29  1  0  0  0
  8  9  1  0  0  0
  9 10  2  0  0  0
 10  2  1  0  0  0
  9  5  1  0  0  0
 26 21  2  0  0  0
 29 25  1  0  0  0
  6 11  1  0  0  0
 17 20  1  0  0  0
 29 30  1  0  0  0
M  END
> <minimizedAffinity>
-9.53515

$$$$
OCNT-2309922


 26 29  0  0  0  0  0  0  0  0999 V2000
   -5.0074   24.9552    5.2971 O   0  0  0  0  0  0  0  0  0  0  0  0
   -4.1780   25.2753    4.4507 C   0  0  0  0  0  0  0  0  0  0  0  0
   -4.0032   24.6708    3.2163 N   0  0  0  0  0  0  0  0  0  0  0  0
   -3.2441   25.0331    2.6563 H   0  0  0  0  0  0  0  0  0  0  0  0
   -4.7207   23.5698    2.6792 C   0  0  0  0  0  0  0  0  0  0  0  0
   -4.6043   22.2739    3.1858 C   0  0  0  0  0  0  0  0  0  0  0  0
   -5.2745   21.1974    2.7114 N   0  0  0  0  0  0  0  0  0  0  0  0
   -6.1068   21.4124    1.6750 C   0  0  0  0  0  0  0  0  0  0  0  0
   -6.3168   22.6515    1.0742 C   0  0  0  0  0  0  0  0  0  0  0  0
   -7.2087   22.7820   -0.0080 C   0  0  0  0  0  0  0  0  0  0  0  0
   -7.4173   24.0189   -0.6095 C   0  0  0  0  0  0  0  0  0  0  0  0
   -6.7343   25.1227   -0.1302 C   0  0  0  0  0  0  0  0  0  0  0  0
   -6.9272   26.3177   -0.7033 F   0  0  0  0  0  0  0  0  0  0  0  0
   -5.8473   25.0154    0.9396 C   0  0  0  0  0  0  0  0  0  0  0  0
   -5.6095   23.7721    1.5806 C   0  0  0  0  0  0  0  0  0  0  0  0
   -3.2449   26.4659    4.7004 C   0  0  0  0  0  0  0  0  0  0  0  0
   -1.9005   25.9446    5.2183 C   0  0  0  0  0  0  0  0  0  0  0  0
   -1.1189   27.0863    5.8370 C   0  0  0  0  0  0  0  0  0  0  0  0
   -1.8073   27.6073    6.9771 O   0  0  0  0  0  0  0  0  0  0  0  0
   -3.0896   28.0028    6.7087 C   0  0  0  0  0  0  0  0  0  0  0  0
   -3.6464   28.9223    7.5981 C   0  0  0  0  0  0  0  0  0  0  0  0
   -4.9425   29.3957    7.3949 C   0  0  0  0  0  0  0  0  0  0  0  0
   -5.6761   28.9448    6.3009 C   0  0  0  0  0  0  0  0  0  0  0  0
   -7.2701   29.5354    6.0397 Cl  0  0  0  0  0  0  0  0  0  0  0  0
   -5.1302   28.0107    5.4190 C   0  0  0  0  0  0  0  0  0  0  0  0
   -3.8346   27.5086    5.6310 C   0  0  0  0  0  0  0  0  0  0  0  0
  1  2  2  0  0  0
  2  3  1  0  0  0
  3  5  1  0  0  0
  5  6  1  0  0  0
  6  7  2  0  0  0
  7  8  1  0  0  0
  8  9  2  0  0  0
  9 10  1  0  0  0
 10 11  2  0  0  0
 11 12  1  0  0  0
 12 13  1  0  0  0
 12 14  2  0  0  0
 14 15  1  0  0  0
  2 16  1  0  0  0
 16 17  1  0  0  0
 17 18  1  0  0  0
 18 19  1  0  0  0
 19 20  1  0  0  0
 20 21  1  0  0  0
 21 22  2  0  0  0
 22 23  1  0  0  0
 23 24  1  0  0  0
 23 25  2  0  0  0
 25 26  1  0  0  0
 15  5  2  0  0  0
 26 16  1  0  0  0
 15  9  1  0  0  0
 26 20  2  0  0  0
  3  4  1  0  0  0
M  END
> <minimizedAffinity>
-10.50800

$$$$
OCNT-2309935


 25 28  0  0  0  0  0  0  0  0999 V2000
   -3.4786   28.7134    6.7345 C   0  0  0  0  0  0  0  0  0  0  0  0
   -2.6182   29.4187    7.5642 C   0  0  0  0  0  0  0  0  0  0  0  0
   -2.7145   30.7624    8.2068 C   0  0  0  0  0  0  0  0  0  0  0  0
   -1.6844   30.9369    9.3278 C   0  0  0  0  0  0  0  0  0  0  0  0
   -0.3041   30.4437    8.8897 C   0  0  0  0  0  0  0  0  0  0  0  0
   -0.3510   28.9607    8.5244 C   0  0  0  0  0  0  0  0  0  0  0  0
   -1.5072   28.6384    7.7091 N   0  0  0  0  0  0  0  0  0  0  0  0
   -1.5819   27.4611    7.0753 N   0  0  0  0  0  0  0  0  0  0  0  0
   -2.7671   27.5079    6.4436 C   0  0  0  0  0  0  0  0  0  0  0  0
   -4.7881   29.1591    6.2811 C   0  0  0  0  0  0  0  0  0  0  0  0
   -4.9610   30.1725    5.6124 O   0  0  0  0  0  0  0  0  0  0  0  0
   -7.1042   28.9034    6.5331 C   0  0  0  0  0  0  0  0  0  0  0  0
   -5.8000   28.3526    6.7109 O   0  0  0  0  0  0  0  0  0  0  0  0
   -3.1835   26.3699    5.5583 C   0  0  0  0  0  0  0  0  0  0  0  0
   -3.4229   26.8246    4.2214 O   0  0  0  0  0  0  0  0  0  0  0  0
   -4.0344   25.9442    3.3697 C   0  0  0  0  0  0  0  0  0  0  0  0
   -3.5449   24.6729    3.0740 C   0  0  0  0  0  0  0  0  0  0  0  0
   -4.2303   23.8422    2.1762 C   0  0  0  0  0  0  0  0  0  0  0  0
   -5.4158   24.2448    1.5366 C   0  0  0  0  0  0  0  0  0  0  0  0
   -5.8827   25.5351    1.8385 C   0  0  0  0  0  0  0  0  0  0  0  0
   -5.2051   26.3730    2.7339 C   0  0  0  0  0  0  0  0  0  0  0  0
   -5.8736   27.9392    3.0414 Cl  0  0  0  0  0  0  0  0  0  0  0  0
   -6.1126   23.3009    0.5736 C   0  0  0  0  0  0  0  0  0  0  0  0
   -6.0732   21.8049    0.7718 C   0  0  0  0  0  0  0  0  0  0  0  0
   -7.3592   22.5527    0.9802 C   0  0  0  0  0  0  0  0  0  0  0  0
 12 13  1  0  0  0
 13 10  1  0  0  0
 10 11  2  0  0  0
 10  1  1  0  0  0
  1  2  2  0  0  0
  2  3  1  0  0  0
  3  4  1  0  0  0
  4  5  1  0  0  0
  5  6  1  0  0  0
  6  7  1  0  0  0
  7  8  1  0  0  0
  8  9  2  0  0  0
  9 14  1  0  0  0
 14 15  1  0  0  0
 15 16  1  0  0  0
 16 17  1  0  0  0
 17 18  2  0  0  0
 18 19  1  0  0  0
 19 23  1  0  0  0
 23 24  1  0  0  0
 24 25  1  0  0  0
 19 20  2  0  0  0
 20 21  1  0  0  0
 21 22  1  0  0  0
  9  1  1  0  0  0
 21 16  2  0  0  0
  7  2  1  0  0  0
 25 23  1  0  0  0
M  END
> <minimizedAffinity>
-8.85043

$$$$
OCNT-2309936


 23 27  0  0  0  0  0  0  0  0999 V2000
   -3.9102   24.8314    3.1517 N   0  0  0  0  0  0  0  0  0  0  0  0
   -4.2552   25.0357    4.5347 C   0  0  0  0  0  0  0  0  0  0  0  0
   -3.7709   26.4877    4.3902 C   0  0  0  0  0  0  0  0  0  0  0  0
   -3.0271   25.9699    3.1501 C   0  0  0  0  0  0  0  0  0  0  0  0
   -5.9866   21.0724    1.7733 C   0  0  0  0  0  0  0  0  0  0  0  0
   -5.1793   21.9482    2.4693 C   0  0  0  0  0  0  0  0  0  0  0  0
   -5.3512   23.2470    1.9053 C   0  0  0  0  0  0  0  0  0  0  0  0
   -4.8413   24.5414    2.1329 C   0  0  0  0  0  0  0  0  0  0  0  0
   -5.2539   25.5327    1.2972 N   0  0  0  0  0  0  0  0  0  0  0  0
   -6.1375   25.2438    0.3231 C   0  0  0  0  0  0  0  0  0  0  0  0
   -6.6983   24.0584    0.0363 N   0  0  0  0  0  0  0  0  0  0  0  0
   -6.2548   23.1022    0.8633 C   0  0  0  0  0  0  0  0  0  0  0  0
   -6.6352   21.7897    0.8016 N   0  0  0  0  0  0  0  0  0  0  0  0
   -7.2898   21.4277    0.1236 H   0  0  0  0  0  0  0  0  0  0  0  0
   -2.9564   27.1137    5.5395 C   0  0  0  0  0  0  0  0  0  0  0  0
   -3.5469   28.0714    6.2760 N   0  0  0  0  0  0  0  0  0  0  0  0
   -2.7984   28.6130    7.2620 C   0  0  0  0  0  0  0  0  0  0  0  0
   -1.4907   28.2642    7.5516 C   0  0  0  0  0  0  0  0  0  0  0  0
   -1.0034   27.2680    6.7233 C   0  0  0  0  0  0  0  0  0  0  0  0
   -1.6954   26.6846    5.7207 N   0  0  0  0  0  0  0  0  0  0  0  0
   -0.6967   28.8749    8.6721 C   0  0  0  0  0  0  0  0  0  0  0  0
    0.7203   29.3428    8.4317 C   0  0  0  0  0  0  0  0  0  0  0  0
   -0.3669   30.3499    8.6544 C   0  0  0  0  0  0  0  0  0  0  0  0
  5  6  2  0  0  0
  6  7  1  0  0  0
  7  8  2  0  0  0
  8  1  1  0  0  0
  1  2  1  0  0  0
  2  3  1  0  0  0
  3 15  1  0  0  0
 15 16  2  0  0  0
 16 17  1  0  0  0
 17 18  2  0  0  0
 18 21  1  0  0  0
 21 22  1  0  0  0
 22 23  1  0  0  0
 18 19  1  0  0  0
 19 20  2  0  0  0
  3  4  1  0  0  0
  8  9  1  0  0  0
  9 10  2  0  0  0
 10 11  1  0  0  0
 11 12  2  0  0  0
 12 13  1  0  0  0
 13  5  1  0  0  0
 12  7  1  0  0  0
  4  1  1  0  0  0
 20 15  1  0  0  0
 23 21  1  0  0  0
 13 14  1  0  0  0
M  END
> <minimizedAffinity>
-8.67623

$$$$
OCNT-2309940


 23 25  0  0  0  0  0  0  0  0999 V2000
   -4.8723   27.4696    5.1038 C   0  0  0  0  0  0  0  0  0  0  0  0
   -4.8929   28.1805    6.2889 C   0  0  0  0  0  0  0  0  0  0  0  0
   -3.6444   28.1232    6.8459 N   0  0  0  0  0  0  0  0  0  0  0  0
   -2.7974   27.3970    6.0432 C   0  0  0  0  0  0  0  0  0  0  0  0
   -3.5403   26.9650    4.9453 C   0  0  0  0  0  0  0  0  0  0  0  0
   -2.8968   26.1751    3.9703 C   0  0  0  0  0  0  0  0  0  0  0  0
   -1.5479   25.8374    4.1362 C   0  0  0  0  0  0  0  0  0  0  0  0
   -0.8325   26.2861    5.2452 C   0  0  0  0  0  0  0  0  0  0  0  0
   -1.4407   27.0965    6.2090 C   0  0  0  0  0  0  0  0  0  0  0  0
   -3.3650   28.5422    7.7222 H   0  0  0  0  0  0  0  0  0  0  0  0
   -6.0251   27.2660    4.1718 C   0  0  0  0  0  0  0  0  0  0  0  0
   -5.7793   29.5277    3.1583 N   0  0  0  0  0  0  0  0  0  0  0  0
   -5.8898   28.0923    2.8863 C   0  0  0  0  0  0  0  0  0  0  0  0
   -6.6012   29.8397    3.6741 H   0  0  0  0  0  0  0  0  0  0  0  0
   -4.9805   29.6985    3.7678 H   0  0  0  0  0  0  0  0  0  0  0  0
   -0.7838   27.5463    7.3235 O   0  0  0  0  0  0  0  0  0  0  0  0
    0.0375   28.6949    7.0669 C   0  0  0  0  0  0  0  0  0  0  0  0
   -0.5928   29.9717    7.5756 C   0  0  0  0  0  0  0  0  0  0  0  0
   -1.3490   30.7742    6.7085 C   0  0  0  0  0  0  0  0  0  0  0  0
   -1.9578   31.9420    7.1721 C   0  0  0  0  0  0  0  0  0  0  0  0
   -1.8256   32.3152    8.5081 C   0  0  0  0  0  0  0  0  0  0  0  0
   -1.0880   31.5198    9.3825 C   0  0  0  0  0  0  0  0  0  0  0  0
   -0.4793   30.3518    8.9206 C   0  0  0  0  0  0  0  0  0  0  0  0
 12 13  1  0  0  0
 13 11  1  0  0  0
 11  1  1  0  0  0
  1  2  2  0  0  0
  2  3  1  0  0  0
  3  4  1  0  0  0
  4  5  1  0  0  0
  5  6  2  0  0  0
  6  7  1  0  0  0
  7  8  2  0  0  0
  8  9  1  0  0  0
  9 16  1  0  0  0
 16 17  1  0  0  0
 17 18  1  0  0  0
 18 19  2  0  0  0
 19 20  1  0  0  0
 20 21  2  0  0  0
 21 22  1  0  0  0
 22 23  2  0  0  0
  5  1  1  0  0  0
 23 18  1  0  0  0
  9  4  2  0  0  0
 12 14  1  0  0  0
 12 15  1  0  0  0
  3 10  1  0  0  0
M  END
> <minimizedAffinity>
-8.65788

$$$$
OCNT-2309942


 26 29  0  0  0  0  0  0  0  0999 V2000
   -1.6126   28.9301    7.2905 S   0  0  0  0  0  0  0  0  0  0  0  0
   -1.6554   27.9330    8.3360 O   0  0  0  0  0  0  0  0  0  0  0  0
   -0.3514   29.3714    6.7293 O   0  0  0  0  0  0  0  0  0  0  0  0
   -4.3949   33.9004    9.3453 C   0  0  0  0  0  0  0  0  0  0  0  0
   -3.7443   32.6428    8.8269 C   0  0  0  0  0  0  0  0  0  0  0  0
   -2.3901   32.6933    8.4770 C   0  0  0  0  0  0  0  0  0  0  0  0
   -1.7518   31.5570    8.0041 C   0  0  0  0  0  0  0  0  0  0  0  0
   -2.4718   30.3628    7.8771 C   0  0  0  0  0  0  0  0  0  0  0  0
   -3.8245   30.2569    8.2006 C   0  0  0  0  0  0  0  0  0  0  0  0
   -4.5042   29.0933    8.0371 N   0  0  0  0  0  0  0  0  0  0  0  0
   -5.8056   29.0317    8.3896 C   0  0  0  0  0  0  0  0  0  0  0  0
   -6.5082   30.1048    8.8830 C   0  0  0  0  0  0  0  0  0  0  0  0
   -5.8308   31.3085    9.0272 C   0  0  0  0  0  0  0  0  0  0  0  0
   -4.4661   31.4222    8.6903 C   0  0  0  0  0  0  0  0  0  0  0  0
   -2.5619   28.3835    6.0035 N   0  0  0  0  0  0  0  0  0  0  0  0
   -2.1867   28.7858    5.1364 H   0  0  0  0  0  0  0  0  0  0  0  0
   -2.8959   26.9348    5.9548 C   0  0  0  0  0  0  0  0  0  0  0  0
   -1.6757   26.1401    5.5056 C   0  0  0  0  0  0  0  0  0  0  0  0
   -1.7288   26.1701    3.9817 C   0  0  0  0  0  0  0  0  0  0  0  0
   -3.0486   26.6887    3.5896 N   0  0  0  0  0  0  0  0  0  0  0  0
   -3.8875   26.6483    4.8154 C   0  0  0  0  0  0  0  0  0  0  0  0
   -5.0926   27.5885    4.7142 C   0  0  0  0  0  0  0  0  0  0  0  0
   -6.0763   26.8607    3.8002 C   0  0  0  0  0  0  0  0  0  0  0  0
   -5.7712   25.3710    3.9611 C   0  0  0  0  0  0  0  0  0  0  0  0
   -4.5913   25.2849    4.9292 C   0  0  0  0  0  0  0  0  0  0  0  0
   -2.9348   27.6763    3.3460 H   0  0  0  0  0  0  0  0  0  0  0  0
  4  5  1  0  0  0
  5  6  1  0  0  0
  6  7  2  0  0  0
  7  8  1  0  0  0
  8  1  1  0  0  0
  1  2  2  0  0  0
  1  3  2  0  0  0
  1 15  1  0  0  0
 15 17  1  0  0  0
 17 18  1  0  0  0
 18 19  1  0  0  0
 19 20  1  0  0  0
 20 21  1  0  0  0
 21 22  1  0  0  0
 22 23  1  0  0  0
 23 24  1  0  0  0
 24 25  1  0  0  0
  8  9  2  0  0  0
  9 10  1  0  0  0
 10 11  2  0  0  0
 11 12  1  0  0  0
 12 13  2  0  0  0
 13 14  1  0  0  0
 14  5  2  0  0  0
 21 17  1  0  0  0
 14  9  1  0  0  0
 25 21  1  0  0  0
 15 16  1  0  0  0
 20 26  1  0  0  0
M  END
> <minimizedAffinity>
-9.40585

$$$$
OCNT-2309963


 27 30  0  0  0  0  0  0  0  0999 V2000
   -4.1398   30.8160    5.6311 N   0  0  0  0  0  0  0  0  0  0  0  0
   -4.3287   31.5351    4.9350 H   0  0  0  0  0  0  0  0  0  0  0  0
    0.0431   28.1611    7.0027 O   0  0  0  0  0  0  0  0  0  0  0  0
   -0.6030   29.2516    7.5051 C   0  0  0  0  0  0  0  0  0  0  0  0
   -1.7430   29.7093    6.8642 C   0  0  0  0  0  0  0  0  0  0  0  0
   -2.4324   30.8448    7.3626 C   0  0  0  0  0  0  0  0  0  0  0  0
   -3.5911   31.4021    6.7867 C   0  0  0  0  0  0  0  0  0  0  0  0
   -4.2189   32.4541    7.3391 N   0  0  0  0  0  0  0  0  0  0  0  0
   -3.6742   32.9742    8.4434 C   0  0  0  0  0  0  0  0  0  0  0  0
   -2.5638   32.5497    9.0554 N   0  0  0  0  0  0  0  0  0  0  0  0
   -1.9573   31.4893    8.5196 C   0  0  0  0  0  0  0  0  0  0  0  0
   -0.8129   31.0089    9.1399 C   0  0  0  0  0  0  0  0  0  0  0  0
   -0.1412   29.9026    8.6375 C   0  0  0  0  0  0  0  0  0  0  0  0
    0.9630   29.4546    9.2521 F   0  0  0  0  0  0  0  0  0  0  0  0
    0.8017   27.9794    7.5893 H   0  0  0  0  0  0  0  0  0  0  0  0
   -5.3080   29.9473    5.8102 C   0  0  0  0  0  0  0  0  0  0  0  0
   -5.9886   29.5568    4.4879 C   0  0  0  0  0  0  0  0  0  0  0  0
   -5.9519   28.0700    4.2074 C   0  0  0  0  0  0  0  0  0  0  0  0
   -6.1732   27.1537    5.2438 C   0  0  0  0  0  0  0  0  0  0  0  0
   -6.1759   25.7742    5.0125 C   0  0  0  0  0  0  0  0  0  0  0  0
   -5.9488   25.3374    3.7036 C   0  0  0  0  0  0  0  0  0  0  0  0
   -5.8956   24.0616    3.1884 N   0  0  0  0  0  0  0  0  0  0  0  0
   -5.6460   24.1046    1.8422 C   0  0  0  0  0  0  0  0  0  0  0  0
   -5.5337   25.4269    1.4775 C   0  0  0  0  0  0  0  0  0  0  0  0
   -5.7227   26.2165    2.6453 C   0  0  0  0  0  0  0  0  0  0  0  0
   -5.7241   27.6018    2.9012 C   0  0  0  0  0  0  0  0  0  0  0  0
   -6.0231   23.2191    3.7316 H   0  0  0  0  0  0  0  0  0  0  0  0
  3  4  1  0  0  0
  4  5  2  0  0  0
  5  6  1  0  0  0
  6  7  2  0  0  0
  7  1  1  0  0  0
  1 16  1  0  0  0
 16 17  1  0  0  0
 17 18  1  0  0  0
 18 19  2  0  0  0
 19 20  1  0  0  0
 20 21  2  0  0  0
 21 22  1  0  0  0
 22 23  1  0  0  0
 23 24  2  0  0  0
 24 25  1  0  0  0
 25 26  2  0  0  0
  7  8  1  0  0  0
  8  9  2  0  0  0
  9 10  1  0  0  0
 10 11  2  0  0  0
 11 12  1  0  0  0
 12 13  2  0  0  0
 13 14  1  0  0  0
 13  4  1  0  0  0
 11  6  1  0  0  0
 26 18  1  0  0  0
 25 21  1  0  0  0
  3 15  1  0  0  0
  1  2  1  0  0  0
 22 27  1  0  0  0
M  END
> <minimizedAffinity>
-10.54493

$$$$
OCNT-2309973


 24 26  0  0  0  0  0  0  0  0999 V2000
   -5.1513   28.7219    6.7884 N   0  0  0  0  0  0  0  0  0  0  0  0
   -5.9765   29.3063    7.8578 C   0  0  0  0  0  0  0  0  0  0  0  0
   -6.8145   30.4987    7.3854 C   0  0  0  0  0  0  0  0  0  0  0  0
   -7.6538   30.1439    6.1623 C   0  0  0  0  0  0  0  0  0  0  0  0
   -6.8104   29.4697    5.0785 C   0  0  0  0  0  0  0  0  0  0  0  0
   -6.0106   28.2852    5.6608 C   0  0  0  0  0  0  0  0  0  0  0  0
   -5.3519   27.3555    4.5804 C   0  0  0  0  0  0  0  0  0  0  0  0
   -6.0059   27.3822    3.1813 C   0  0  0  0  0  0  0  0  0  0  0  0
   -5.4993   26.2508    2.2909 C   0  0  0  0  0  0  0  0  0  0  0  0
   -5.8188   24.8715    2.8580 C   0  0  0  0  0  0  0  0  0  0  0  0
   -6.1224   24.8920    4.3537 C   0  0  0  0  0  0  0  0  0  0  0  0
   -5.2576   25.8926    5.1199 C   0  0  0  0  0  0  0  0  0  0  0  0
   -3.9001   25.4385    5.0745 O   0  0  0  0  0  0  0  0  0  0  0  0
   -3.5271   25.6805    4.2097 H   0  0  0  0  0  0  0  0  0  0  0  0
   -3.9976   29.5704    6.4614 C   0  0  0  0  0  0  0  0  0  0  0  0
   -1.8266   29.5293    7.9323 C   0  0  0  0  0  0  0  0  0  0  0  0
   -2.7512   28.9788    7.0516 C   0  0  0  0  0  0  0  0  0  0  0  0
   -2.3370   27.7039    6.6977 N   0  0  0  0  0  0  0  0  0  0  0  0
   -1.2407   27.5218    7.3888 C   0  0  0  0  0  0  0  0  0  0  0  0
   -0.8600   28.5772    8.1486 O   0  0  0  0  0  0  0  0  0  0  0  0
   -0.2620   30.9266    9.2992 C   0  0  0  0  0  0  0  0  0  0  0  0
   -1.6475   30.8521    8.6368 C   0  0  0  0  0  0  0  0  0  0  0  0
   -1.7585   32.0331    7.6475 C   0  0  0  0  0  0  0  0  0  0  0  0
   -2.7428   31.0262    9.7043 C   0  0  0  0  0  0  0  0  0  0  0  0
 21 22  1  0  0  0
 22 23  1  0  0  0
 22 24  1  0  0  0
 22 16  1  0  0  0
 16 17  2  0  0  0
 17 15  1  0  0  0
 15  1  1  0  0  0
  1  2  1  0  0  0
  2  3  1  0  0  0
  3  4  1  0  0  0
  4  5  1  0  0  0
  5  6  1  0  0  0
  6  7  1  0  0  0
  7  8  1  0  0  0
  8  9  1  0  0  0
  9 10  1  0  0  0
 10 11  1  0  0  0
 11 12  1  0  0  0
 12 13  1  0  0  0
 17 18  1  0  0  0
 18 19  2  0  0  0
 19 20  1  0  0  0
 20 16  1  0  0  0
  6  1  1  0  0  0
 12  7  1  0  0  0
 13 14  1  0  0  0
M  END
> <minimizedAffinity>
-8.53825

$$$$
OCNT-2309977


 24 26  0  0  0  0  0  0  0  0999 V2000
   -1.7179   28.9327    7.6337 S   0  0  0  0  0  0  0  0  0  0  0  0
   -1.5202   30.2036    6.9747 O   0  0  0  0  0  0  0  0  0  0  0  0
   -0.7826   28.4243    8.6108 O   0  0  0  0  0  0  0  0  0  0  0  0
   -0.9334   26.1813    4.7606 C   0  0  0  0  0  0  0  0  0  0  0  0
   -2.2209   25.8838    4.2901 C   0  0  0  0  0  0  0  0  0  0  0  0
   -3.3393   26.5097    4.8471 C   0  0  0  0  0  0  0  0  0  0  0  0
   -4.9075   26.1377    4.2444 Cl  0  0  0  0  0  0  0  0  0  0  0  0
   -3.1990   27.4344    5.8767 C   0  0  0  0  0  0  0  0  0  0  0  0
   -1.9196   27.7253    6.3524 C   0  0  0  0  0  0  0  0  0  0  0  0
   -0.7914   27.1016    5.8089 C   0  0  0  0  0  0  0  0  0  0  0  0
    0.2791   25.5051    4.1687 C   0  0  0  0  0  0  0  0  0  0  0  0
    2.3603   25.8808    3.0927 C   0  0  0  0  0  0  0  0  0  0  0  0
    1.1170   26.4438    3.4932 O   0  0  0  0  0  0  0  0  0  0  0  0
   -3.2345   29.0063    8.3375 N   0  0  0  0  0  0  0  0  0  0  0  0
   -3.8682   28.3203    7.9259 H   0  0  0  0  0  0  0  0  0  0  0  0
   -3.8411   30.2323    8.8941 C   0  0  0  0  0  0  0  0  0  0  0  0
   -5.0586   29.8057    9.7567 C   0  0  0  0  0  0  0  0  0  0  0  0
   -6.1739   30.7840    9.4252 C   0  0  0  0  0  0  0  0  0  0  0  0
   -5.9502   31.0646    7.9519 C   0  0  0  0  0  0  0  0  0  0  0  0
   -4.4287   31.1368    7.7853 C   0  0  0  0  0  0  0  0  0  0  0  0
   -3.8484   32.5253    8.0802 C   0  0  0  0  0  0  0  0  0  0  0  0
   -3.4645   32.4964    9.4947 N   0  0  0  0  0  0  0  0  0  0  0  0
   -2.8912   31.1580    9.6759 C   0  0  0  0  0  0  0  0  0  0  0  0
   -2.7634   33.2128    9.6818 H   0  0  0  0  0  0  0  0  0  0  0  0
 12 13  1  0  0  0
 13 11  1  0  0  0
 11  4  1  0  0  0
  4  5  1  0  0  0
  5  6  2  0  0  0
  6  7  1  0  0  0
  6  8  1  0  0  0
  8  9  2  0  0  0
  9  1  1  0  0  0
  1  2  2  0  0  0
  1  3  2  0  0  0
  1 14  1  0  0  0
 16 14  1  0  0  0
 16 17  1  0  0  0
 17 18  1  0  0  0
 18 19  1  0  0  0
 19 20  1  0  0  0
 20 21  1  0  0  0
 21 22  1  0  0  0
 22 23  1  0  0  0
  9 10  1  0  0  0
 10  4  2  0  0  0
 20 16  1  0  0  0
 23 16  1  0  0  0
 14 15  1  0  0  0
 22 24  1  0  0  0
M  END
> <minimizedAffinity>
-7.91123

$$$$
OCNT-2309987


 30 33  0  0  0  0  0  0  0  0999 V2000
   -3.7219   25.4135    3.6832 C   0  0  0  0  0  0  0  0  0  0  0  0
   -3.5667   24.0558    3.3667 C   0  0  0  0  0  0  0  0  0  0  0  0
   -4.6761   23.2662    3.0548 C   0  0  0  0  0  0  0  0  0  0  0  0
   -4.5511   21.9063    2.7178 C   0  0  0  0  0  0  0  0  0  0  0  0
   -5.6804   21.1521    2.4072 C   0  0  0  0  0  0  0  0  0  0  0  0
   -6.9336   21.7528    2.4327 C   0  0  0  0  0  0  0  0  0  0  0  0
   -7.0497   23.1049    2.7703 C   0  0  0  0  0  0  0  0  0  0  0  0
   -5.9399   23.8787    3.0847 C   0  0  0  0  0  0  0  0  0  0  0  0
   -6.1062   25.1707    3.4123 N   0  0  0  0  0  0  0  0  0  0  0  0
   -5.0266   25.9273    3.7254 C   0  0  0  0  0  0  0  0  0  0  0  0
   -5.2431   27.2650    4.1334 N   0  0  0  0  0  0  0  0  0  0  0  0
   -6.0259   28.0214    3.1494 C   0  0  0  0  0  0  0  0  0  0  0  0
   -5.9545   29.5090    3.5089 C   0  0  0  0  0  0  0  0  0  0  0  0
   -6.0111   29.7624    5.0184 C   0  0  0  0  0  0  0  0  0  0  0  0
   -6.6042   28.5738    5.7642 C   0  0  0  0  0  0  0  0  0  0  0  0
   -5.8228   27.2814    5.4930 C   0  0  0  0  0  0  0  0  0  0  0  0
   -2.5193   26.2679    4.0112 C   0  0  0  0  0  0  0  0  0  0  0  0
   -2.1524   26.2061    5.4385 N   0  0  0  0  0  0  0  0  0  0  0  0
   -2.0174   25.2218    5.6762 H   0  0  0  0  0  0  0  0  0  0  0  0
   -0.9151   26.9565    5.6885 C   0  0  0  0  0  0  0  0  0  0  0  0
   -0.9534   27.5815    7.0746 C   0  0  0  0  0  0  0  0  0  0  0  0
    1.1006   28.6821    8.2948 O   0  0  0  0  0  0  0  0  0  0  0  0
    0.1635   28.9599    7.2224 S   0  0  0  0  0  0  0  0  0  0  0  0
    0.6447   29.2922    5.8940 O   0  0  0  0  0  0  0  0  0  0  0  0
   -0.8693   30.3112    7.7411 C   0  0  0  0  0  0  0  0  0  0  0  0
   -0.7527   30.8219    9.0366 C   0  0  0  0  0  0  0  0  0  0  0  0
   -1.5703   31.8812    9.4296 C   0  0  0  0  0  0  0  0  0  0  0  0
   -2.4863   32.4292    8.5297 C   0  0  0  0  0  0  0  0  0  0  0  0
   -2.5839   31.9270    7.2307 C   0  0  0  0  0  0  0  0  0  0  0  0
   -1.7710   30.8676    6.8291 C   0  0  0  0  0  0  0  0  0  0  0  0
 22 23  2  0  0  0
 23 24  2  0  0  0
 23 21  1  0  0  0
 21 20  1  0  0  0
 20 18  1  0  0  0
 18 17  1  0  0  0
 17  1  1  0  0  0
  1  2  2  0  0  0
  2  3  1  0  0  0
  3  4  2  0  0  0
  4  5  1  0  0  0
  5  6  2  0  0  0
  6  7  1  0  0  0
  7  8  2  0  0  0
  8  9  1  0  0  0
  9 10  2  0  0  0
 10 11  1  0  0  0
 11 12  1  0  0  0
 12 13  1  0  0  0
 13 14  1  0  0  0
 14 15  1  0  0  0
 15 16  1  0  0  0
 23 25  1  0  0  0
 25 26  2  0  0  0
 26 27  1  0  0  0
 27 28  2  0  0  0
 28 29  1  0  0  0
 29 30  2  0  0  0
 10  1  1  0  0  0
 16 11  1  0  0  0
 30 25  1  0  0  0
  8  3  1  0  0  0
 18 19  1  0  0  0
M  END
> <minimizedAffinity>
-9.95835

$$$$
OCNT-2309990


 30 33  0  0  0  0  0  0  0  0999 V2000
   -6.8479   28.6558    5.9961 C   0  0  0  0  0  0  0  0  0  0  0  0
   -5.4919   23.9530    4.7654 C   0  0  0  0  0  0  0  0  0  0  0  0
   -5.6642   25.3937    4.3820 C   0  0  0  0  0  0  0  0  0  0  0  0
   -6.1483   26.3226    5.3140 C   0  0  0  0  0  0  0  0  0  0  0  0
   -6.3125   27.6769    4.9743 C   0  0  0  0  0  0  0  0  0  0  0  0
   -5.9689   28.1018    3.6837 C   0  0  0  0  0  0  0  0  0  0  0  0
   -5.4927   27.1870    2.7443 C   0  0  0  0  0  0  0  0  0  0  0  0
   -5.3669   25.8376    3.0873 C   0  0  0  0  0  0  0  0  0  0  0  0
   -4.8797   24.9364    2.1688 O   0  0  0  0  0  0  0  0  0  0  0  0
   -5.7555   24.4616    1.2226 C   0  0  0  0  0  0  0  0  0  0  0  0
   -6.2892   25.2106    0.1751 C   0  0  0  0  0  0  0  0  0  0  0  0
   -7.1985   24.6152   -0.6969 C   0  0  0  0  0  0  0  0  0  0  0  0
   -7.5507   23.2915   -0.4812 C   0  0  0  0  0  0  0  0  0  0  0  0
   -7.0629   22.5401    0.5287 N   0  0  0  0  0  0  0  0  0  0  0  0
   -6.1824   23.1474    1.3610 C   0  0  0  0  0  0  0  0  0  0  0  0
   -6.3063   28.3647    7.3213 N   0  0  0  0  0  0  0  0  0  0  0  0
   -5.7743   27.4944    7.2464 H   0  0  0  0  0  0  0  0  0  0  0  0
   -5.4140   29.3888    7.8663 C   0  0  0  0  0  0  0  0  0  0  0  0
   -3.9248   29.2030    7.5372 C   0  0  0  0  0  0  0  0  0  0  0  0
   -3.1548   29.8648    8.7007 C   0  0  0  0  0  0  0  0  0  0  0  0
   -4.2236   30.5456    9.5623 C   0  0  0  0  0  0  0  0  0  0  0  0
   -5.4414   29.6485    9.3829 C   0  0  0  0  0  0  0  0  0  0  0  0
   -6.6350   30.3025    9.7762 O   0  0  0  0  0  0  0  0  0  0  0  0
   -6.5634   30.4954   10.7270 H   0  0  0  0  0  0  0  0  0  0  0  0
   -2.0663   30.8393    8.2501 C   0  0  0  0  0  0  0  0  0  0  0  0
   -0.8187   30.1767    7.9139 N   0  0  0  0  0  0  0  0  0  0  0  0
    0.1199   29.7019    8.7843 C   0  0  0  0  0  0  0  0  0  0  0  0
    1.1181   29.1613    8.0084 C   0  0  0  0  0  0  0  0  0  0  0  0
    0.6834   29.3533    6.6841 C   0  0  0  0  0  0  0  0  0  0  0  0
   -0.5003   29.9690    6.6214 N   0  0  0  0  0  0  0  0  0  0  0  0
  2  3  1  0  0  0
  3  4  1  0  0  0
  4  5  2  0  0  0
  5  1  1  0  0  0
  1 16  1  0  0  0
 16 18  1  0  0  0
 18 19  1  0  0  0
 19 20  1  0  0  0
 20 25  1  0  0  0
 25 26  1  0  0  0
 26 27  1  0  0  0
 27 28  2  0  0  0
 28 29  1  0  0  0
 29 30  2  0  0  0
 20 21  1  0  0  0
 21 22  1  0  0  0
 22 23  1  0  0  0
  5  6  1  0  0  0
  6  7  2  0  0  0
  7  8  1  0  0  0
  8  9  1  0  0  0
  9 10  1  0  0  0
 10 11  1  0  0  0
 11 12  2  0  0  0
 12 13  1  0  0  0
 13 14  2  0  0  0
 14 15  1  0  0  0
  8  3  2  0  0  0
 15 10  2  0  0  0
 22 18  1  0  0  0
 30 26  1  0  0  0
 16 17  1  0  0  0
 23 24  1  0  0  0
M  END
> <minimizedAffinity>
-10.06951

$$$$
OCNT-2310006


 35 39  0  0  0  0  0  0  0  0999 V2000
    0.2000   29.4263    5.7614 O   0  0  0  0  0  0  0  0  0  0  0  0
    0.2332   28.6262    6.6904 C   0  0  0  0  0  0  0  0  0  0  0  0
   -0.3899   27.3879    6.7339 N   0  0  0  0  0  0  0  0  0  0  0  0
   -0.2980   26.8666    7.5977 H   0  0  0  0  0  0  0  0  0  0  0  0
   -1.1631   26.7778    5.7255 C   0  0  0  0  0  0  0  0  0  0  0  0
   -0.6286   26.1188    4.6194 C   0  0  0  0  0  0  0  0  0  0  0  0
   -1.4661   25.5328    3.6593 C   0  0  0  0  0  0  0  0  0  0  0  0
   -2.8563   25.6028    3.7902 C   0  0  0  0  0  0  0  0  0  0  0  0
   -3.3969   26.2471    4.9110 C   0  0  0  0  0  0  0  0  0  0  0  0
   -2.5542   26.8333    5.8641 C   0  0  0  0  0  0  0  0  0  0  0  0
   -3.7171   24.9988    2.8277 N   0  0  0  0  0  0  0  0  0  0  0  0
   -4.1943   25.6220    1.6915 C   0  0  0  0  0  0  0  0  0  0  0  0
   -5.0378   24.8814    1.0123 N   0  0  0  0  0  0  0  0  0  0  0  0
   -5.0922   23.6992    1.6952 C   0  0  0  0  0  0  0  0  0  0  0  0
   -5.8295   22.5451    1.3849 C   0  0  0  0  0  0  0  0  0  0  0  0
   -5.6958   21.4138    2.1941 C   0  0  0  0  0  0  0  0  0  0  0  0
   -4.8311   21.4255    3.2854 C   0  0  0  0  0  0  0  0  0  0  0  0
   -4.0918   22.5693    3.6137 C   0  0  0  0  0  0  0  0  0  0  0  0
   -4.2625   23.7176    2.8195 C   0  0  0  0  0  0  0  0  0  0  0  0
    1.0042   28.9026    7.9705 C   0  0  0  0  0  0  0  0  0  0  0  0
    0.1244   29.5099    9.0569 C   0  0  0  0  0  0  0  0  0  0  0  0
   -0.8733   30.4153    8.5246 N   0  0  0  0  0  0  0  0  0  0  0  0
   -2.1784   30.0222    8.3134 C   0  0  0  0  0  0  0  0  0  0  0  0
   -2.5788   28.9079    8.6412 O   0  0  0  0  0  0  0  0  0  0  0  0
   -0.5340   31.2552    8.0743 H   0  0  0  0  0  0  0  0  0  0  0  0
   -3.0340   31.0094    7.6511 C   0  0  0  0  0  0  0  0  0  0  0  0
   -3.4363   31.0194    6.3228 C   0  0  0  0  0  0  0  0  0  0  0  0
   -4.2328   32.1141    6.1138 N   0  0  0  0  0  0  0  0  0  0  0  0
   -4.3604   32.8398    7.2726 C   0  0  0  0  0  0  0  0  0  0  0  0
   -5.0688   34.0223    7.5195 C   0  0  0  0  0  0  0  0  0  0  0  0
   -5.0234   34.5482    8.8132 C   0  0  0  0  0  0  0  0  0  0  0  0
   -4.2965   33.9156    9.8176 C   0  0  0  0  0  0  0  0  0  0  0  0
   -3.5950   32.7339    9.5517 C   0  0  0  0  0  0  0  0  0  0  0  0
   -3.6225   32.1768    8.2545 C   0  0  0  0  0  0  0  0  0  0  0  0
   -4.6644   32.3625    5.2337 H   0  0  0  0  0  0  0  0  0  0  0  0
  1  2  2  0  0  0
  2 20  1  0  0  0
 20 21  1  0  0  0
 21 22  1  0  0  0
 22 23  1  0  0  0
 23 24  2  0  0  0
 23 26  1  0  0  0
 26 27  2  0  0  0
 27 28  1  0  0  0
 28 29  1  0  0  0
 29 30  2  0  0  0
 30 31  1  0  0  0
 31 32  2  0  0  0
 32 33  1  0  0  0
 33 34  2  0  0  0
  2  3  1  0  0  0
  3  5  1  0  0  0
  5  6  1  0  0  0
  6  7  2  0  0  0
  7  8  1  0  0  0
  8 11  1  0  0  0
 11 12  1  0  0  0
 12 13  2  0  0  0
 13 14  1  0  0  0
 14 15  2  0  0  0
 15 16  1  0  0  0
 16 17  2  0  0  0
 17 18  1  0  0  0
 18 19  2  0  0  0
  8  9  2  0  0  0
  9 10  1  0  0  0
 34 26  1  0  0  0
 10  5  2  0  0  0
 34 29  1  0  0  0
 19 11  1  0  0  0
 19 14  1  0  0  0
 22 25  1  0  0  0
 28 35  1  0  0  0
  3  4  1  0  0  0
M  END
> <minimizedAffinity>
-11.14680

$$$$
OCNT-2310008


 25 29  0  0  0  0  0  0  0  0999 V2000
   -4.8286   24.6772    3.8479 C   0  0  0  0  0  0  0  0  0  0  0  0
   -3.5590   24.9396    4.0688 N   0  0  0  0  0  0  0  0  0  0  0  0
   -3.6164   25.9962    4.9477 C   0  0  0  0  0  0  0  0  0  0  0  0
   -4.8610   26.3823    5.2658 N   0  0  0  0  0  0  0  0  0  0  0  0
   -5.6667   25.5094    4.5381 O   0  0  0  0  0  0  0  0  0  0  0  0
   -5.3195   23.5362    2.8937 C   0  0  0  0  0  0  0  0  0  0  0  0
   -4.8153   23.7151    1.4228 C   0  0  0  0  0  0  0  0  0  0  0  0
   -6.2492   23.6486    0.9711 C   0  0  0  0  0  0  0  0  0  0  0  0
   -6.7482   24.6234   -0.0703 C   0  0  0  0  0  0  0  0  0  0  0  0
   -7.6563   23.4775   -0.5829 C   0  0  0  0  0  0  0  0  0  0  0  0
   -6.7067   22.4789    0.1257 C   0  0  0  0  0  0  0  0  0  0  0  0
   -6.7809   23.7620    2.3813 C   0  0  0  0  0  0  0  0  0  0  0  0
   -3.8157   21.7378    3.1869 F   0  0  0  0  0  0  0  0  0  0  0  0
   -5.0632   22.1714    3.4814 C   0  0  0  0  0  0  0  0  0  0  0  0
   -5.1969   22.1849    4.8277 F   0  0  0  0  0  0  0  0  0  0  0  0
   -5.9344   21.2530    2.9981 F   0  0  0  0  0  0  0  0  0  0  0  0
   -2.3925   26.6251    5.4726 C   0  0  0  0  0  0  0  0  0  0  0  0
   -1.1622   26.0914    5.3771 N   0  0  0  0  0  0  0  0  0  0  0  0
   -0.3719   26.9934    5.9834 N   0  0  0  0  0  0  0  0  0  0  0  0
   -1.0506   28.0775    6.4518 C   0  0  0  0  0  0  0  0  0  0  0  0
   -2.3723   27.8723    6.1449 C   0  0  0  0  0  0  0  0  0  0  0  0
    0.6232   26.8057    6.0407 H   0  0  0  0  0  0  0  0  0  0  0  0
   -0.4477   29.2803    7.2064 C   0  0  0  0  0  0  0  0  0  0  0  0
   -0.3979   29.2458    8.7105 C   0  0  0  0  0  0  0  0  0  0  0  0
    0.8683   29.1111    7.9169 C   0  0  0  0  0  0  0  0  0  0  0  0
 13 14  1  0  0  0
 14 15  1  0  0  0
 14 16  1  0  0  0
 14  6  1  0  0  0
  6  1  1  0  0  0
  1  2  2  0  0  0
  2  3  1  0  0  0
  3 17  1  0  0  0
 17 18  2  0  0  0
 18 19  1  0  0  0
 19 20  1  0  0  0
 20 23  1  0  0  0
 23 24  1  0  0  0
 24 25  1  0  0  0
 20 21  2  0  0  0
  3  4  2  0  0  0
  4  5  1  0  0  0
  6  7  1  0  0  0
  7  8  1  0  0  0
  8  9  1  0  0  0
  9 10  1  0  0  0
 10 11  1  0  0  0
  8 12  1  0  0  0
 12  6  1  0  0  0
  5  1  1  0  0  0
 11  8  1  0  0  0
 21 17  1  0  0  0
 25 23  1  0  0  0
 19 22  1  0  0  0
M  END
> <minimizedAffinity>
-9.42902

$$$$
OCNT-2310010


 30 33  0  0  0  0  0  0  0  0999 V2000
   -5.5028   26.5666    2.9615 O   0  0  0  0  0  0  0  0  0  0  0  0
   -4.8626   25.8727    3.7478 C   0  0  0  0  0  0  0  0  0  0  0  0
   -5.3492   24.6917    4.2555 N   0  0  0  0  0  0  0  0  0  0  0  0
   -4.8127   24.1323    4.9056 H   0  0  0  0  0  0  0  0  0  0  0  0
   -3.4576   26.2337    4.2501 C   0  0  0  0  0  0  0  0  0  0  0  0
   -3.4693   26.6222    5.6746 N   0  0  0  0  0  0  0  0  0  0  0  0
   -2.2744   26.1835    6.4097 C   0  0  0  0  0  0  0  0  0  0  0  0
   -1.0471   27.1018    6.3175 C   0  0  0  0  0  0  0  0  0  0  0  0
   -1.0464   28.3064    7.2369 C   0  0  0  0  0  0  0  0  0  0  0  0
    0.2096   28.7734    7.6784 C   0  0  0  0  0  0  0  0  0  0  0  0
    0.3221   29.8759    8.5259 C   0  0  0  0  0  0  0  0  0  0  0  0
   -0.8278   30.5232    8.9445 C   0  0  0  0  0  0  0  0  0  0  0  0
   -0.7769   31.5986    9.7797 O   0  0  0  0  0  0  0  0  0  0  0  0
   -2.0775   30.0937    8.5143 C   0  0  0  0  0  0  0  0  0  0  0  0
   -2.2080   28.9971    7.6389 C   0  0  0  0  0  0  0  0  0  0  0  0
   -3.6135   28.6110    7.2262 C   0  0  0  0  0  0  0  0  0  0  0  0
   -3.7487   28.0589    5.8021 C   0  0  0  0  0  0  0  0  0  0  0  0
    0.1512   31.7686   10.0065 H   0  0  0  0  0  0  0  0  0  0  0  0
   -6.6341   24.1468    3.8489 C   0  0  0  0  0  0  0  0  0  0  0  0
   -6.4647   23.2968    2.5946 C   0  0  0  0  0  0  0  0  0  0  0  0
   -5.9656   21.9885    2.7083 C   0  0  0  0  0  0  0  0  0  0  0  0
   -5.8154   21.1803    1.5799 C   0  0  0  0  0  0  0  0  0  0  0  0
   -6.1677   21.6647    0.3233 C   0  0  0  0  0  0  0  0  0  0  0  0
   -6.6804   22.9538    0.1932 C   0  0  0  0  0  0  0  0  0  0  0  0
   -6.8367   23.7625    1.3213 C   0  0  0  0  0  0  0  0  0  0  0  0
   -7.2018   23.3693    5.0259 C   0  0  0  0  0  0  0  0  0  0  0  0
   -6.4869   22.9188    6.0461 N   0  0  0  0  0  0  0  0  0  0  0  0
   -7.3104   22.2519    6.9308 C   0  0  0  0  0  0  0  0  0  0  0  0
   -8.6417   22.1975    6.5820 C   0  0  0  0  0  0  0  0  0  0  0  0
   -8.8857   23.0061    5.0928 S   0  0  0  0  0  0  0  0  0  0  0  0
  1  2  2  0  0  0
  2  5  1  0  0  0
  5  6  1  0  0  0
  6  7  1  0  0  0
  7  8  1  0  0  0
  8  9  1  0  0  0
  9 10  1  0  0  0
 10 11  2  0  0  0
 11 12  1  0  0  0
 12 13  1  0  0  0
 12 14  2  0  0  0
 14 15  1  0  0  0
 15 16  1  0  0  0
 16 17  1  0  0  0
  2  3  1  0  0  0
  3 19  1  0  0  0
 19 20  1  0  0  0
 20 21  2  0  0  0
 21 22  1  0  0  0
 22 23  2  0  0  0
 23 24  1  0  0  0
 24 25  2  0  0  0
 19 26  1  0  0  0
 26 27  2  0  0  0
 27 28  1  0  0  0
 28 29  2  0  0  0
 29 30  1  0  0  0
 17  6  1  0  0  0
 25 20  1  0  0  0
 30 26  1  0  0  0
 15  9  2  0  0  0
 13 18  1  0  0  0
  3  4  1  0  0  0
M  END
> <minimizedAffinity>
-9.74643

$$$$
OCNT-2310018


 26 29  0  0  0  0  0  0  0  0999 V2000
   -6.9427   23.0741   -0.5781 O   0  0  0  0  0  0  0  0  0  0  0  0
   -6.7252   23.5295    0.6879 C   0  0  0  0  0  0  0  0  0  0  0  0
   -7.0584   22.6963    1.7407 C   0  0  0  0  0  0  0  0  0  0  0  0
   -6.8393   23.1253    3.0482 C   0  0  0  0  0  0  0  0  0  0  0  0
   -6.2789   24.3902    3.3208 C   0  0  0  0  0  0  0  0  0  0  0  0
   -6.0722   24.7530    4.7775 C   0  0  0  0  0  0  0  0  0  0  0  0
   -4.8388   25.6122    5.0693 C   0  0  0  0  0  0  0  0  0  0  0  0
   -5.0751   27.0474    4.8507 N   0  0  0  0  0  0  0  0  0  0  0  0
   -5.8511   27.4075    3.6518 C   0  0  0  0  0  0  0  0  0  0  0  0
   -5.4029   26.6417    2.4056 C   0  0  0  0  0  0  0  0  0  0  0  0
   -5.9811   25.2499    2.2442 C   0  0  0  0  0  0  0  0  0  0  0  0
   -6.1904   24.7913    0.9262 C   0  0  0  0  0  0  0  0  0  0  0  0
   -6.6706   23.7616   -1.2074 H   0  0  0  0  0  0  0  0  0  0  0  0
   -5.1423   27.9064    5.9489 C   0  0  0  0  0  0  0  0  0  0  0  0
   -6.3238   28.3112    6.3645 N   0  0  0  0  0  0  0  0  0  0  0  0
   -6.4179   29.1405    7.4599 C   0  0  0  0  0  0  0  0  0  0  0  0
   -5.3599   29.5864    8.1473 C   0  0  0  0  0  0  0  0  0  0  0  0
   -4.0981   29.2122    7.7325 N   0  0  0  0  0  0  0  0  0  0  0  0
   -2.9008   29.5589    8.2633 N   0  0  0  0  0  0  0  0  0  0  0  0
   -1.9806   28.9974    7.4541 C   0  0  0  0  0  0  0  0  0  0  0  0
   -2.6037   28.2627    6.4126 C   0  0  0  0  0  0  0  0  0  0  0  0
   -3.9545   28.3912    6.6366 C   0  0  0  0  0  0  0  0  0  0  0  0
   -0.4998   29.1635    7.6698 C   0  0  0  0  0  0  0  0  0  0  0  0
    0.0617   29.9490    6.7077 F   0  0  0  0  0  0  0  0  0  0  0  0
    0.1688   27.9806    7.6329 F   0  0  0  0  0  0  0  0  0  0  0  0
   -0.2092   29.7515    8.8601 F   0  0  0  0  0  0  0  0  0  0  0  0
  1  2  1  0  0  0
  2  3  1  0  0  0
  3  4  2  0  0  0
  4  5  1  0  0  0
  5  6  1  0  0  0
  6  7  1  0  0  0
  7  8  1  0  0  0
  8 14  1  0  0  0
 14 15  2  0  0  0
 15 16  1  0  0  0
 16 17  2  0  0  0
 17 18  1  0  0  0
 18 19  1  0  0  0
 19 20  2  0  0  0
 20 23  1  0  0  0
 23 24  1  0  0  0
 23 25  1  0  0  0
 23 26  1  0  0  0
 20 21  1  0  0  0
 21 22  2  0  0  0
  8  9  1  0  0  0
  9 10  1  0  0  0
 10 11  1  0  0  0
 11 12  1  0  0  0
 12  2  2  0  0  0
 11  5  2  0  0  0
 22 14  1  0  0  0
 22 18  1  0  0  0
  1 13  1  0  0  0
M  END
> <minimizedAffinity>
-9.81868

$$$$
OCNT-2310019


 28 30  0  0  0  0  0  0  0  0999 V2000
   -6.2384   24.7654    2.4097 O   0  0  0  0  0  0  0  0  0  0  0  0
   -5.5731   23.5983    2.1675 C   0  0  0  0  0  0  0  0  0  0  0  0
   -5.0042   23.3537    1.1097 O   0  0  0  0  0  0  0  0  0  0  0  0
   -6.9259   21.6950    3.2393 C   0  0  0  0  0  0  0  0  0  0  0  0
   -5.6977   22.6175    3.3610 C   0  0  0  0  0  0  0  0  0  0  0  0
   -4.4376   21.7348    3.2913 C   0  0  0  0  0  0  0  0  0  0  0  0
   -5.6208   23.2441    4.6587 O   0  0  0  0  0  0  0  0  0  0  0  0
   -6.6822   23.0214    5.4900 C   0  0  0  0  0  0  0  0  0  0  0  0
   -6.5161   22.1613    6.5769 C   0  0  0  0  0  0  0  0  0  0  0  0
   -7.5704   21.9503    7.4674 C   0  0  0  0  0  0  0  0  0  0  0  0
   -8.7752   22.6275    7.2832 C   0  0  0  0  0  0  0  0  0  0  0  0
  -10.0760   22.3698    8.3784 Cl  0  0  0  0  0  0  0  0  0  0  0  0
   -8.9269   23.5241    6.2263 C   0  0  0  0  0  0  0  0  0  0  0  0
   -7.8711   23.7323    5.3356 C   0  0  0  0  0  0  0  0  0  0  0  0
   -5.4374   25.9420    2.2352 C   0  0  0  0  0  0  0  0  0  0  0  0
   -5.1936   26.6294    3.5597 C   0  0  0  0  0  0  0  0  0  0  0  0
   -6.1417   27.3094    4.2247 C   0  0  0  0  0  0  0  0  0  0  0  0
   -5.9194   27.9871    5.5101 C   0  0  0  0  0  0  0  0  0  0  0  0
   -6.8298   28.5923    6.0641 O   0  0  0  0  0  0  0  0  0  0  0  0
   -4.6486   27.9061    6.0468 O   0  0  0  0  0  0  0  0  0  0  0  0
   -3.6257   27.1968    5.3875 C   0  0  0  0  0  0  0  0  0  0  0  0
   -2.3850   27.1783    6.0283 C   0  0  0  0  0  0  0  0  0  0  0  0
   -1.3377   26.4964    5.4272 C   0  0  0  0  0  0  0  0  0  0  0  0
   -0.1015   26.4404    5.9967 O   0  0  0  0  0  0  0  0  0  0  0  0
   -1.5216   25.8460    4.2131 C   0  0  0  0  0  0  0  0  0  0  0  0
   -2.7722   25.8737    3.5841 C   0  0  0  0  0  0  0  0  0  0  0  0
   -3.8513   26.5554    4.1650 C   0  0  0  0  0  0  0  0  0  0  0  0
   -0.1199   26.9240    6.8392 H   0  0  0  0  0  0  0  0  0  0  0  0
  4  5  1  0  0  0
  5  6  1  0  0  0
  5  7  1  0  0  0
  7  8  1  0  0  0
  8  9  1  0  0  0
  9 10  2  0  0  0
 10 11  1  0  0  0
 11 12  1  0  0  0
 11 13  2  0  0  0
 13 14  1  0  0  0
  5  2  1  0  0  0
  2  3  2  0  0  0
  2  1  1  0  0  0
  1 15  1  0  0  0
 15 16  1  0  0  0
 16 17  2  0  0  0
 17 18  1  0  0  0
 18 19  2  0  0  0
 18 20  1  0  0  0
 20 21  1  0  0  0
 21 22  1  0  0  0
 22 23  2  0  0  0
 23 24  1  0  0  0
 23 25  1  0  0  0
 25 26  2  0  0  0
 26 27  1  0  0  0
 14  8  2  0  0  0
 27 16  1  0  0  0
 27 21  2  0  0  0
 24 28  1  0  0  0
M  END
> <minimizedAffinity>
-8.98586

$$$$
OCNT-2310024


 24 26  0  0  0  0  0  0  0  0999 V2000
   -5.1899   28.2821    6.9490 N   0  0  0  0  0  0  0  0  0  0  0  0
   -4.2944   28.3041    7.4525 H   0  0  0  0  0  0  0  0  0  0  0  0
   -4.8947   28.1695    5.5091 C   0  0  0  0  0  0  0  0  0  0  0  0
   -6.1366   27.7687    4.6898 C   0  0  0  0  0  0  0  0  0  0  0  0
   -5.7672   27.5739    3.2243 C   0  0  0  0  0  0  0  0  0  0  0  0
   -4.7816   26.4171    3.0859 C   0  0  0  0  0  0  0  0  0  0  0  0
   -3.6087   26.5268    4.0293 C   0  0  0  0  0  0  0  0  0  0  0  0
   -2.4516   25.7772    3.7561 C   0  0  0  0  0  0  0  0  0  0  0  0
   -1.3402   25.8466    4.5963 C   0  0  0  0  0  0  0  0  0  0  0  0
   -1.3835   26.6695    5.7132 C   0  0  0  0  0  0  0  0  0  0  0  0
   -0.3167   26.7805    6.5553 O   0  0  0  0  0  0  0  0  0  0  0  0
   -2.5226   27.4096    6.0071 C   0  0  0  0  0  0  0  0  0  0  0  0
   -3.6639   27.3291    5.1881 C   0  0  0  0  0  0  0  0  0  0  0  0
    0.3965   26.2099    6.2271 H   0  0  0  0  0  0  0  0  0  0  0  0
   -5.9161   29.4928    7.3392 C   0  0  0  0  0  0  0  0  0  0  0  0
   -5.2533   30.1870    8.5492 C   0  0  0  0  0  0  0  0  0  0  0  0
   -3.8217   29.6845    8.7498 C   0  0  0  0  0  0  0  0  0  0  0  0
   -3.1194   30.8515    9.4182 C   0  0  0  0  0  0  0  0  0  0  0  0
   -3.8489   32.0371    9.0823 O   0  0  0  0  0  0  0  0  0  0  0  0
   -4.9643   31.6642    8.2532 C   0  0  0  0  0  0  0  0  0  0  0  0
   -6.0780   30.0817    9.8722 C   0  0  0  0  0  0  0  0  0  0  0  0
   -5.7619   28.2253   11.3991 O   0  0  0  0  0  0  0  0  0  0  0  0
   -6.5147   28.6758   10.2794 C   0  0  0  0  0  0  0  0  0  0  0  0
   -6.0220   27.3008   11.5582 H   0  0  0  0  0  0  0  0  0  0  0  0
 22 23  1  0  0  0
 23 21  1  0  0  0
 21 16  1  0  0  0
 16 15  1  0  0  0
 15  1  1  0  0  0
  1  3  1  0  0  0
  3  4  1  0  0  0
  4  5  1  0  0  0
  5  6  1  0  0  0
  6  7  1  0  0  0
  7  8  1  0  0  0
  8  9  2  0  0  0
  9 10  1  0  0  0
 10 11  1  0  0  0
 10 12  2  0  0  0
 12 13  1  0  0  0
 16 17  1  0  0  0
 17 18  1  0  0  0
 18 19  1  0  0  0
 19 20  1  0  0  0
 20 16  1  0  0  0
 13  3  1  0  0  0
 13  7  2  0  0  0
 22 24  1  0  0  0
  1  2  1  0  0  0
 11 14  1  0  0  0
M  END
> <minimizedAffinity>
-8.45885

$$$$
OCNT-2310035


 22 24  0  0  0  0  0  0  0  0999 V2000
   -1.8097   27.8397    5.8636 O   0  0  0  0  0  0  0  0  0  0  0  0
   -2.8226   27.8651    6.5571 C   0  0  0  0  0  0  0  0  0  0  0  0
   -4.0354   27.3258    6.1874 N   0  0  0  0  0  0  0  0  0  0  0  0
   -2.8169   28.4167    7.8373 N   0  0  0  0  0  0  0  0  0  0  0  0
   -1.5395   28.8879    8.3658 C   0  0  0  0  0  0  0  0  0  0  0  0
   -1.3501   30.3714    8.0500 C   0  0  0  0  0  0  0  0  0  0  0  0
   -2.5667   31.1643    8.4515 C   0  0  0  0  0  0  0  0  0  0  0  0
   -2.4920   32.5423    8.6193 C   0  0  0  0  0  0  0  0  0  0  0  0
   -3.5430   33.3199    8.9587 N   0  0  0  0  0  0  0  0  0  0  0  0
   -4.7287   32.6992    9.1263 C   0  0  0  0  0  0  0  0  0  0  0  0
   -4.9153   31.3349    8.9694 C   0  0  0  0  0  0  0  0  0  0  0  0
   -3.8181   30.5448    8.6134 C   0  0  0  0  0  0  0  0  0  0  0  0
   -3.9847   29.0479    8.4551 C   0  0  0  0  0  0  0  0  0  0  0  0
   -4.6207   27.0405    6.9577 H   0  0  0  0  0  0  0  0  0  0  0  0
   -4.4003   26.8442    4.9137 C   0  0  0  0  0  0  0  0  0  0  0  0
   -5.3476   27.4657    4.0930 C   0  0  0  0  0  0  0  0  0  0  0  0
   -5.6761   26.9237    2.8437 C   0  0  0  0  0  0  0  0  0  0  0  0
   -5.0628   25.7508    2.4121 C   0  0  0  0  0  0  0  0  0  0  0  0
   -5.4728   25.0899    0.8776 Cl  0  0  0  0  0  0  0  0  0  0  0  0
   -4.1289   25.1247    3.2318 C   0  0  0  0  0  0  0  0  0  0  0  0
   -3.5275   23.9900    2.8437 F   0  0  0  0  0  0  0  0  0  0  0  0
   -3.7982   25.6600    4.4760 C   0  0  0  0  0  0  0  0  0  0  0  0
  1  2  2  0  0  0
  2  3  1  0  0  0
  3 15  1  0  0  0
 15 16  1  0  0  0
 16 17  2  0  0  0
 17 18  1  0  0  0
 18 19  1  0  0  0
 18 20  2  0  0  0
 20 21  1  0  0  0
 20 22  1  0  0  0
  2  4  1  0  0  0
  4  5  1  0  0  0
  5  6  1  0  0  0
  6  7  1  0  0  0
  7  8  2  0  0  0
  8  9  1  0  0  0
  9 10  2  0  0  0
 10 11  1  0  0  0
 11 12  2  0  0  0
 12 13  1  0  0  0
 22 15  2  0  0  0
 13  4  1  0  0  0
 12  7  1  0  0  0
  3 14  1  0  0  0
M  END
> <minimizedAffinity>
-8.82606

$$$$
OCNT-2310041


 28 31  0  0  0  0  0  0  0  0999 V2000
   -2.9285   25.7159    4.6912 N   0  0  0  0  0  0  0  0  0  0  0  0
   -4.1717   26.0539    5.4236 C   0  0  0  0  0  0  0  0  0  0  0  0
   -4.3101   27.5298    5.8547 C   0  0  0  0  0  0  0  0  0  0  0  0
   -3.1267   27.9860    6.6086 N   0  0  0  0  0  0  0  0  0  0  0  0
   -1.8339   27.6582    5.9851 C   0  0  0  0  0  0  0  0  0  0  0  0
   -1.7825   26.1847    5.5115 C   0  0  0  0  0  0  0  0  0  0  0  0
   -3.2726   29.1893    7.2549 C   0  0  0  0  0  0  0  0  0  0  0  0
   -4.3329   29.9559    7.1090 N   0  0  0  0  0  0  0  0  0  0  0  0
   -4.2418   31.0997    7.8807 C   0  0  0  0  0  0  0  0  0  0  0  0
   -5.2020   32.1298    7.9504 C   0  0  0  0  0  0  0  0  0  0  0  0
   -4.9776   33.2355    8.7772 C   0  0  0  0  0  0  0  0  0  0  0  0
   -3.8123   33.3246    9.5319 C   0  0  0  0  0  0  0  0  0  0  0  0
   -2.8461   32.3149    9.4798 C   0  0  0  0  0  0  0  0  0  0  0  0
   -3.0839   31.2100    8.6450 C   0  0  0  0  0  0  0  0  0  0  0  0
   -2.1075   29.8273    8.3686 S   0  0  0  0  0  0  0  0  0  0  0  0
   -2.9286   26.3324    3.3399 C   0  0  0  0  0  0  0  0  0  0  0  0
   -5.1680   26.9319    2.6741 O   0  0  0  0  0  0  0  0  0  0  0  0
   -4.2676   26.0995    2.6211 C   0  0  0  0  0  0  0  0  0  0  0  0
   -4.3220   24.8704    1.9936 N   0  0  0  0  0  0  0  0  0  0  0  0
   -3.4424   24.3520    2.0106 H   0  0  0  0  0  0  0  0  0  0  0  0
   -5.3853   24.2977    1.2741 C   0  0  0  0  0  0  0  0  0  0  0  0
   -6.1651   24.9905    0.3459 C   0  0  0  0  0  0  0  0  0  0  0  0
   -7.2059   24.3350   -0.3217 C   0  0  0  0  0  0  0  0  0  0  0  0
   -7.4635   22.9930   -0.0590 C   0  0  0  0  0  0  0  0  0  0  0  0
   -8.4617   22.3753   -0.7033 F   0  0  0  0  0  0  0  0  0  0  0  0
   -6.7030   22.2866    0.8597 C   0  0  0  0  0  0  0  0  0  0  0  0
   -5.6717   22.9457    1.5177 C   0  0  0  0  0  0  0  0  0  0  0  0
   -4.9328   22.2632    2.4073 F   0  0  0  0  0  0  0  0  0  0  0  0
 17 18  2  0  0  0
 18 16  1  0  0  0
 16  1  1  0  0  0
  1  2  1  0  0  0
  2  3  1  0  0  0
  3  4  1  0  0  0
  4  7  1  0  0  0
  7  8  2  0  0  0
  8  9  1  0  0  0
  9 10  2  0  0  0
 10 11  1  0  0  0
 11 12  2  0  0  0
 12 13  1  0  0  0
 13 14  2  0  0  0
 14 15  1  0  0  0
  4  5  1  0  0  0
  5  6  1  0  0  0
 18 19  1  0  0  0
 19 21  1  0  0  0
 21 22  1  0  0  0
 22 23  2  0  0  0
 23 24  1  0  0  0
 24 25  1  0  0  0
 24 26  2  0  0  0
 26 27  1  0  0  0
 27 28  1  0  0  0
  6  1  1  0  0  0
 27 21  2  0  0  0
 15  7  1  0  0  0
 14  9  1  0  0  0
 19 20  1  0  0  0
M  END
> <minimizedAffinity>
-10.12153

$$$$
OCNT-2310050


 22 23  0  0  0  0  0  0  0  0999 V2000
   -7.0953   30.1379    6.5297 C   0  0  0  0  0  0  0  0  0  0  0  0
   -6.6408   29.1197    5.5156 C   0  0  0  0  0  0  0  0  0  0  0  0
   -6.3079   29.5187    4.2153 C   0  0  0  0  0  0  0  0  0  0  0  0
   -5.8549   28.5857    3.2769 C   0  0  0  0  0  0  0  0  0  0  0  0
   -5.7195   27.2323    3.6154 C   0  0  0  0  0  0  0  0  0  0  0  0
   -6.0483   26.8404    4.9215 C   0  0  0  0  0  0  0  0  0  0  0  0
   -6.5002   27.7717    5.8630 C   0  0  0  0  0  0  0  0  0  0  0  0
   -5.2475   26.2670    2.6318 C   0  0  0  0  0  0  0  0  0  0  0  0
   -4.1075   25.5101    2.4561 C   0  0  0  0  0  0  0  0  0  0  0  0
   -4.2057   24.7497    1.3170 N   0  0  0  0  0  0  0  0  0  0  0  0
   -5.3880   25.0683    0.8441 C   0  0  0  0  0  0  0  0  0  0  0  0
   -6.0819   25.9772    1.5804 O   0  0  0  0  0  0  0  0  0  0  0  0
   -5.8414   31.1362    8.4057 C   0  0  0  0  0  0  0  0  0  0  0  0
   -6.6016   30.6663    9.2496 O   0  0  0  0  0  0  0  0  0  0  0  0
   -5.9660   30.8688    7.0559 N   0  0  0  0  0  0  0  0  0  0  0  0
   -5.4294   31.4263    6.4066 H   0  0  0  0  0  0  0  0  0  0  0  0
   -4.6752   32.0941    8.7520 C   0  0  0  0  0  0  0  0  0  0  0  0
   -3.3480   31.4220    8.6944 N   0  0  0  0  0  0  0  0  0  0  0  0
   -2.5851   31.7556    7.4945 C   0  0  0  0  0  0  0  0  0  0  0  0
   -2.5266   31.6274    9.8888 C   0  0  0  0  0  0  0  0  0  0  0  0
   -4.8183   34.6475    8.6409 C   0  0  0  0  0  0  0  0  0  0  0  0
   -4.7551   33.3459    7.8528 C   0  0  0  0  0  0  0  0  0  0  0  0
 21 22  1  0  0  0
 22 17  1  0  0  0
 17 13  1  0  0  0
 13 14  2  0  0  0
 13 15  1  0  0  0
 15  1  1  0  0  0
  1  2  1  0  0  0
  2  3  1  0  0  0
  3  4  2  0  0  0
  4  5  1  0  0  0
  5  8  1  0  0  0
  8  9  2  0  0  0
  9 10  1  0  0  0
 10 11  2  0  0  0
 11 12  1  0  0  0
  5  6  2  0  0  0
  6  7  1  0  0  0
 17 18  1  0  0  0
 18 19  1  0  0  0
 18 20  1  0  0  0
  7  2  2  0  0  0
 12  8  1  0  0  0
 15 16  1  0  0  0
M  END
> <minimizedAffinity>
-8.24748

$$$$
OCNT-2310061


 28 31  0  0  0  0  0  0  0  0999 V2000
   -5.8076   28.7147    6.6010 O   0  0  0  0  0  0  0  0  0  0  0  0
   -5.0941   29.3179    5.8120 C   0  0  0  0  0  0  0  0  0  0  0  0
   -5.1921   29.2210    4.4488 N   0  0  0  0  0  0  0  0  0  0  0  0
   -4.0900   30.1730    6.1759 N   0  0  0  0  0  0  0  0  0  0  0  0
   -4.3413   29.4105    3.9413 H   0  0  0  0  0  0  0  0  0  0  0  0
   -3.8516   30.8884    5.5063 H   0  0  0  0  0  0  0  0  0  0  0  0
   -3.8481   30.5027    7.5746 C   0  0  0  0  0  0  0  0  0  0  0  0
   -4.1824   31.9840    7.8234 C   0  0  0  0  0  0  0  0  0  0  0  0
   -3.6646   32.4423    9.1787 C   0  0  0  0  0  0  0  0  0  0  0  0
   -2.1433   32.3464    9.2155 C   0  0  0  0  0  0  0  0  0  0  0  0
   -1.6333   31.0032    8.7557 C   0  0  0  0  0  0  0  0  0  0  0  0
   -0.3244   30.6267    9.0982 C   0  0  0  0  0  0  0  0  0  0  0  0
    0.1910   29.3952    8.6978 C   0  0  0  0  0  0  0  0  0  0  0  0
   -0.5952   28.5248    7.9512 C   0  0  0  0  0  0  0  0  0  0  0  0
   -1.8921   28.8928    7.5931 C   0  0  0  0  0  0  0  0  0  0  0  0
   -2.4216   30.1429    7.9659 C   0  0  0  0  0  0  0  0  0  0  0  0
   -6.1172   28.2943    3.8370 C   0  0  0  0  0  0  0  0  0  0  0  0
   -5.3901   27.1361    3.2055 C   0  0  0  0  0  0  0  0  0  0  0  0
   -4.0283   26.9353    3.4469 C   0  0  0  0  0  0  0  0  0  0  0  0
   -3.3891   25.8756    2.8264 C   0  0  0  0  0  0  0  0  0  0  0  0
   -4.0047   25.0134    1.9884 N   0  0  0  0  0  0  0  0  0  0  0  0
   -5.3277   25.2213    1.7507 C   0  0  0  0  0  0  0  0  0  0  0  0
   -6.0490   26.2637    2.3323 C   0  0  0  0  0  0  0  0  0  0  0  0
   -5.9913   24.3330    0.8647 N   0  0  0  0  0  0  0  0  0  0  0  0
   -5.9078   22.9633    0.8590 C   0  0  0  0  0  0  0  0  0  0  0  0
   -6.6530   22.4627   -0.1008 N   0  0  0  0  0  0  0  0  0  0  0  0
   -7.1889   23.5769   -0.6737 C   0  0  0  0  0  0  0  0  0  0  0  0
   -6.8228   24.7409   -0.1327 N   0  0  0  0  0  0  0  0  0  0  0  0
  1  2  2  0  0  0
  2  3  1  0  0  0
  3 17  1  0  0  0
 17 18  1  0  0  0
 18 19  2  0  0  0
 19 20  1  0  0  0
 20 21  2  0  0  0
 21 22  1  0  0  0
 22 24  1  0  0  0
 24 25  1  0  0  0
 25 26  2  0  0  0
 26 27  1  0  0  0
 27 28  2  0  0  0
 22 23  2  0  0  0
  2  4  1  0  0  0
  4  7  1  0  0  0
  7  8  1  0  0  0
  8  9  1  0  0  0
  9 10  1  0  0  0
 10 11  1  0  0  0
 11 12  2  0  0  0
 12 13  1  0  0  0
 13 14  2  0  0  0
 14 15  1  0  0  0
 15 16  2  0  0  0
 23 18  1  0  0  0
 16  7  1  0  0  0
 28 24  1  0  0  0
 16 11  1  0  0  0
  3  5  1  0  0  0
  4  6  1  0  0  0
M  END
> <minimizedAffinity>
-10.32818

$$$$
OCNT-2310066


 27 28  0  0  0  0  0  0  0  0999 V2000
   -6.0973   29.3332    6.0692 S   0  0  0  0  0  0  0  0  0  0  0  0
   -7.4575   29.8192    6.0337 O   0  0  0  0  0  0  0  0  0  0  0  0
   -4.9711   30.2248    5.9037 O   0  0  0  0  0  0  0  0  0  0  0  0
   -5.9309   25.6449    4.4013 C   0  0  0  0  0  0  0  0  0  0  0  0
   -6.0070   26.6938    5.3285 C   0  0  0  0  0  0  0  0  0  0  0  0
   -5.9740   28.0189    4.8843 C   0  0  0  0  0  0  0  0  0  0  0  0
   -5.8865   28.3127    3.5233 C   0  0  0  0  0  0  0  0  0  0  0  0
   -5.8111   27.2691    2.5992 C   0  0  0  0  0  0  0  0  0  0  0  0
   -5.8304   25.9260    3.0243 C   0  0  0  0  0  0  0  0  0  0  0  0
   -5.7457   24.8084    2.0093 C   0  0  0  0  0  0  0  0  0  0  0  0
   -6.8142   23.9646    2.0509 F   0  0  0  0  0  0  0  0  0  0  0  0
   -4.6490   24.0264    2.1868 F   0  0  0  0  0  0  0  0  0  0  0  0
   -5.6915   25.2723    0.7329 F   0  0  0  0  0  0  0  0  0  0  0  0
   -5.9767   23.2085    5.2978 N   0  0  0  0  0  0  0  0  0  0  0  0
   -5.9554   24.2942    4.8917 C   0  0  0  0  0  0  0  0  0  0  0  0
   -5.9252   28.5299    7.5176 N   0  0  0  0  0  0  0  0  0  0  0  0
   -5.8176   27.5188    7.4429 H   0  0  0  0  0  0  0  0  0  0  0  0
   -6.3151   29.1243    8.8050 C   0  0  0  0  0  0  0  0  0  0  0  0
   -5.0996   29.5001    9.6691 C   0  0  0  0  0  0  0  0  0  0  0  0
   -4.2342   30.4403    8.9595 N   0  0  0  0  0  0  0  0  0  0  0  0
   -4.2286   31.3680    9.4023 H   0  0  0  0  0  0  0  0  0  0  0  0
   -2.9082   30.0022    8.8018 C   0  0  0  0  0  0  0  0  0  0  0  0
   -1.8556   30.8218    9.2269 C   0  0  0  0  0  0  0  0  0  0  0  0
   -0.5419   30.5084    9.0849 N   0  0  0  0  0  0  0  0  0  0  0  0
   -0.3071   29.3297    8.4754 C   0  0  0  0  0  0  0  0  0  0  0  0
   -1.3321   28.5132    8.0325 C   0  0  0  0  0  0  0  0  0  0  0  0
   -2.6405   28.8320    8.1806 N   0  0  0  0  0  0  0  0  0  0  0  0
 14 15  3  0  0  0
 15  4  1  0  0  0
  4  5  1  0  0  0
  5  6  2  0  0  0
  6  1  1  0  0  0
  1  2  2  0  0  0
  1  3  2  0  0  0
  1 16  1  0  0  0
 16 18  1  0  0  0
 18 19  1  0  0  0
 19 20  1  0  0  0
 20 22  1  0  0  0
 22 23  2  0  0  0
 23 24  1  0  0  0
 24 25  2  0  0  0
 25 26  1  0  0  0
 26 27  2  0  0  0
  6  7  1  0  0  0
  7  8  2  0  0  0
  8  9  1  0  0  0
  9 10  1  0  0  0
 10 11  1  0  0  0
 10 12  1  0  0  0
 10 13  1  0  0  0
  9  4  2  0  0  0
 27 22  1  0  0  0
 16 17  1  0  0  0
 20 21  1  0  0  0
M  END
> <minimizedAffinity>
-8.00070

$$$$
OCNT-2310067


 27 30  0  0  0  0  0  0  0  0999 V2000
   -4.4424   29.0755    8.1877 S   0  0  0  0  0  0  0  0  0  0  0  0
   -3.1993   28.4449    8.5740 O   0  0  0  0  0  0  0  0  0  0  0  0
   -5.6878   28.8084    8.8764 O   0  0  0  0  0  0  0  0  0  0  0  0
   -5.2893   27.4231    3.9639 C   0  0  0  0  0  0  0  0  0  0  0  0
   -3.8630   27.4919    4.5280 C   0  0  0  0  0  0  0  0  0  0  0  0
   -3.8224   27.5354    6.0537 C   0  0  0  0  0  0  0  0  0  0  0  0
   -4.6639   28.6752    6.5214 N   0  0  0  0  0  0  0  0  0  0  0  0
   -6.0926   28.4427    6.1701 C   0  0  0  0  0  0  0  0  0  0  0  0
   -6.2283   28.4255    4.6487 C   0  0  0  0  0  0  0  0  0  0  0  0
   -7.2642   22.7876    4.8564 C   0  0  0  0  0  0  0  0  0  0  0  0
   -6.6839   24.0254    4.2913 C   0  0  0  0  0  0  0  0  0  0  0  0
   -6.4337   24.1138    2.9801 N   0  0  0  0  0  0  0  0  0  0  0  0
   -5.9028   25.3730    2.7822 O   0  0  0  0  0  0  0  0  0  0  0  0
   -5.8387   26.0337    3.9683 C   0  0  0  0  0  0  0  0  0  0  0  0
   -6.3247   25.2159    4.9607 C   0  0  0  0  0  0  0  0  0  0  0  0
   -4.2489   30.8490    8.1729 C   0  0  0  0  0  0  0  0  0  0  0  0
   -5.4016   31.6344    8.3599 C   0  0  0  0  0  0  0  0  0  0  0  0
   -5.3226   33.0244    8.3143 C   0  0  0  0  0  0  0  0  0  0  0  0
   -4.0950   33.6372    8.0923 C   0  0  0  0  0  0  0  0  0  0  0  0
   -2.9448   32.8597    7.9341 C   0  0  0  0  0  0  0  0  0  0  0  0
   -2.9916   31.4510    7.9811 C   0  0  0  0  0  0  0  0  0  0  0  0
   -1.7240   30.7142    7.8852 C   0  0  0  0  0  0  0  0  0  0  0  0
   -1.2671   30.2251    6.6511 C   0  0  0  0  0  0  0  0  0  0  0  0
   -0.0520   29.5425    6.5580 C   0  0  0  0  0  0  0  0  0  0  0  0
    0.7255   29.3439    7.6967 C   0  0  0  0  0  0  0  0  0  0  0  0
    0.2900   29.8272    8.9283 C   0  0  0  0  0  0  0  0  0  0  0  0
   -0.9247   30.5102    9.0218 C   0  0  0  0  0  0  0  0  0  0  0  0
 10 11  1  0  0  0
 11 12  2  0  0  0
 12 13  1  0  0  0
 13 14  1  0  0  0
 14  4  1  0  0  0
  4  5  1  0  0  0
  5  6  1  0  0  0
  6  7  1  0  0  0
  7  1  1  0  0  0
  1  2  2  0  0  0
  1  3  2  0  0  0
  1 16  1  0  0  0
 16 17  2  0  0  0
 17 18  1  0  0  0
 18 19  2  0  0  0
 19 20  1  0  0  0
 20 21  2  0  0  0
 21 22  1  0  0  0
 22 23  2  0  0  0
 23 24  1  0  0  0
 24 25  2  0  0  0
 25 26  1  0  0  0
 26 27  2  0  0  0
  7  8  1  0  0  0
  8  9  1  0  0  0
 14 15  2  0  0  0
 15 11  1  0  0  0
  9  4  1  0  0  0
 21 16  1  0  0  0
 27 22  1  0  0  0
M  END
> <minimizedAffinity>
-9.42111

$$$$
OCNT-2310076


 26 28  0  0  0  0  0  0  0  0999 V2000
   -1.9589   27.7261    6.6042 N   0  0  0  0  0  0  0  0  0  0  0  0
   -1.6986   26.7947    5.6240 C   0  0  0  0  0  0  0  0  0  0  0  0
   -0.5724   26.3992    5.3417 O   0  0  0  0  0  0  0  0  0  0  0  0
   -2.9301   27.9501    6.7935 H   0  0  0  0  0  0  0  0  0  0  0  0
   -2.8947   26.3086    4.9533 C   0  0  0  0  0  0  0  0  0  0  0  0
   -2.9718   25.3525    3.9630 C   0  0  0  0  0  0  0  0  0  0  0  0
   -4.3077   25.2456    3.6639 N   0  0  0  0  0  0  0  0  0  0  0  0
   -5.0076   26.1068    4.4512 N   0  0  0  0  0  0  0  0  0  0  0  0
   -4.1587   26.7551    5.2352 N   0  0  0  0  0  0  0  0  0  0  0  0
   -4.9714   24.4202    2.7222 C   0  0  0  0  0  0  0  0  0  0  0  0
   -4.8486   23.0218    2.8269 C   0  0  0  0  0  0  0  0  0  0  0  0
   -5.4913   22.1816    1.9135 C   0  0  0  0  0  0  0  0  0  0  0  0
   -6.2617   22.7256    0.8880 C   0  0  0  0  0  0  0  0  0  0  0  0
   -6.3870   24.1100    0.7788 C   0  0  0  0  0  0  0  0  0  0  0  0
   -7.3437   24.7650   -0.4965 Cl  0  0  0  0  0  0  0  0  0  0  0  0
   -5.7464   24.9554    1.6898 C   0  0  0  0  0  0  0  0  0  0  0  0
   -5.8941   26.2804    1.5465 F   0  0  0  0  0  0  0  0  0  0  0  0
   -0.9201   28.2974    7.4373 C   0  0  0  0  0  0  0  0  0  0  0  0
   -4.6967   30.6322    7.1232 C   0  0  0  0  0  0  0  0  0  0  0  0
   -3.5096   30.0221    7.7296 N   0  0  0  0  0  0  0  0  0  0  0  0
   -3.4228   30.3472    9.1572 C   0  0  0  0  0  0  0  0  0  0  0  0
   -2.7009   31.6441    9.5436 C   0  0  0  0  0  0  0  0  0  0  0  0
   -1.2013   31.7186    9.2206 C   0  0  0  0  0  0  0  0  0  0  0  0
   -0.5567   30.3843    8.8536 C   0  0  0  0  0  0  0  0  0  0  0  0
   -0.9687   29.8354    7.4691 C   0  0  0  0  0  0  0  0  0  0  0  0
   -2.3210   30.3519    6.9357 C   0  0  0  0  0  0  0  0  0  0  0  0
 19 20  1  0  0  0
 20 21  1  0  0  0
 21 22  1  0  0  0
 22 23  1  0  0  0
 23 24  1  0  0  0
 24 25  1  0  0  0
 25 18  1  0  0  0
 18  1  1  0  0  0
  1  2  1  0  0  0
  2  3  2  0  0  0
  2  5  1  0  0  0
  5  6  2  0  0  0
  6  7  1  0  0  0
  7 10  1  0  0  0
 10 11  2  0  0  0
 11 12  1  0  0  0
 12 13  2  0  0  0
 13 14  1  0  0  0
 14 15  1  0  0  0
 14 16  2  0  0  0
 16 17  1  0  0  0
  7  8  1  0  0  0
  8  9  2  0  0  0
 25 26  1  0  0  0
 26 20  1  0  0  0
  9  5  1  0  0  0
 16 10  1  0  0  0
  1  4  1  0  0  0
M  END
> <minimizedAffinity>
-9.61054

$$$$
OCNT-2310088


 29 31  0  0  0  0  0  0  0  0999 V2000
   -2.4527   27.6066    6.4644 C   0  0  0  0  0  0  0  0  0  0  0  0
   -1.5099   26.8212    6.4836 O   0  0  0  0  0  0  0  0  0  0  0  0
   -3.5509   27.4838    5.6231 N   0  0  0  0  0  0  0  0  0  0  0  0
   -4.2171   28.2422    5.6308 H   0  0  0  0  0  0  0  0  0  0  0  0
   -3.8218   26.4568    4.6937 C   0  0  0  0  0  0  0  0  0  0  0  0
   -3.1445   26.5137    3.4690 C   0  0  0  0  0  0  0  0  0  0  0  0
   -3.3565   25.5385    2.4899 C   0  0  0  0  0  0  0  0  0  0  0  0
   -4.2432   24.4875    2.7218 C   0  0  0  0  0  0  0  0  0  0  0  0
   -4.9301   24.4301    3.9347 C   0  0  0  0  0  0  0  0  0  0  0  0
   -4.7180   25.4099    4.9147 C   0  0  0  0  0  0  0  0  0  0  0  0
   -4.3807   23.5925    1.6821 O   0  0  0  0  0  0  0  0  0  0  0  0
   -5.5683   23.5917    0.9914 C   0  0  0  0  0  0  0  0  0  0  0  0
   -5.9361   24.7681    0.3315 C   0  0  0  0  0  0  0  0  0  0  0  0
   -7.1171   24.8087   -0.4098 C   0  0  0  0  0  0  0  0  0  0  0  0
   -7.9196   23.6712   -0.5065 C   0  0  0  0  0  0  0  0  0  0  0  0
   -7.5377   22.4874    0.1299 C   0  0  0  0  0  0  0  0  0  0  0  0
   -6.3560   22.4417    0.8732 C   0  0  0  0  0  0  0  0  0  0  0  0
   -5.9032   20.9481    1.6086 Cl  0  0  0  0  0  0  0  0  0  0  0  0
   -3.1608   30.7175    8.4800 C   0  0  0  0  0  0  0  0  0  0  0  0
   -1.9024   30.5228    9.0005 C   0  0  0  0  0  0  0  0  0  0  0  0
   -1.1630   29.1252    8.3550 S   0  0  0  0  0  0  0  0  0  0  0  0
   -2.5094   28.7828    7.3378 C   0  0  0  0  0  0  0  0  0  0  0  0
   -3.5133   29.7203    7.5195 C   0  0  0  0  0  0  0  0  0  0  0  0
   -4.1881   32.0298    8.9429 S   0  0  0  0  0  0  0  0  0  0  0  0
   -3.3677   32.8636    9.7916 O   0  0  0  0  0  0  0  0  0  0  0  0
   -5.3906   31.3876    9.4174 O   0  0  0  0  0  0  0  0  0  0  0  0
   -5.1706   34.2386    7.7837 C   0  0  0  0  0  0  0  0  0  0  0  0
   -4.5956   32.9077    7.5640 N   0  0  0  0  0  0  0  0  0  0  0  0
   -5.1389   32.3182    6.9317 H   0  0  0  0  0  0  0  0  0  0  0  0
 27 28  1  0  0  0
 28 24  1  0  0  0
 24 25  2  0  0  0
 24 26  2  0  0  0
 24 19  1  0  0  0
 19 20  2  0  0  0
 20 21  1  0  0  0
 21 22  1  0  0  0
 22  1  1  0  0  0
  1  2  2  0  0  0
  1  3  1  0  0  0
  3  5  1  0  0  0
  5  6  1  0  0  0
  6  7  2  0  0  0
  7  8  1  0  0  0
  8 11  1  0  0  0
 11 12  1  0  0  0
 12 13  2  0  0  0
 13 14  1  0  0  0
 14 15  2  0  0  0
 15 16  1  0  0  0
 16 17  2  0  0  0
 17 18  1  0  0  0
  8  9  2  0  0  0
  9 10  1  0  0  0
 22 23  2  0  0  0
 23 19  1  0  0  0
 10  5  2  0  0  0
 17 12  1  0  0  0
 28 29  1  0  0  0
  3  4  1  0  0  0
M  END
> <minimizedAffinity>
-9.53369

$$$$
OCNT-2310095


 24 26  0  0  0  0  0  0  0  0999 V2000
   -5.2884   25.2200    2.4950 C   0  0  0  0  0  0  0  0  0  0  0  0
   -6.0114   25.6047    3.6339 C   0  0  0  0  0  0  0  0  0  0  0  0
   -5.4019   26.3374    4.6572 C   0  0  0  0  0  0  0  0  0  0  0  0
   -4.0531   26.7016    4.5645 C   0  0  0  0  0  0  0  0  0  0  0  0
   -3.3309   26.3310    3.4226 C   0  0  0  0  0  0  0  0  0  0  0  0
   -3.9412   25.5983    2.4010 C   0  0  0  0  0  0  0  0  0  0  0  0
   -5.9682   23.0416    1.4060 C   0  0  0  0  0  0  0  0  0  0  0  0
   -6.5935   22.3603    0.3488 C   0  0  0  0  0  0  0  0  0  0  0  0
   -7.1791   23.0671   -0.7011 C   0  0  0  0  0  0  0  0  0  0  0  0
   -7.1436   24.4578   -0.7033 C   0  0  0  0  0  0  0  0  0  0  0  0
   -6.5237   25.1425    0.3443 C   0  0  0  0  0  0  0  0  0  0  0  0
   -5.9278   24.4511    1.4163 C   0  0  0  0  0  0  0  0  0  0  0  0
   -4.9121   21.6481    3.3273 N   0  0  0  0  0  0  0  0  0  0  0  0
   -5.3711   22.2627    2.4557 C   0  0  0  0  0  0  0  0  0  0  0  0
   -3.3871   27.4929    5.6648 C   0  0  0  0  0  0  0  0  0  0  0  0
   -2.6436   26.6104    6.5592 N   0  0  0  0  0  0  0  0  0  0  0  0
   -2.9811   25.6562    6.4417 H   0  0  0  0  0  0  0  0  0  0  0  0
   -1.2146   26.6545    6.2679 C   0  0  0  0  0  0  0  0  0  0  0  0
   -0.6335   27.8397    6.9539 C   0  0  0  0  0  0  0  0  0  0  0  0
    0.2842   28.7528    6.4734 C   0  0  0  0  0  0  0  0  0  0  0  0
    0.5021   29.6489    7.4765 N   0  0  0  0  0  0  0  0  0  0  0  0
   -0.1969   29.3814    8.5914 N   0  0  0  0  0  0  0  0  0  0  0  0
   -0.8876   28.2845    8.2725 C   0  0  0  0  0  0  0  0  0  0  0  0
    1.1110   30.4603    7.4723 H   0  0  0  0  0  0  0  0  0  0  0  0
 13 14  3  0  0  0
 14  7  1  0  0  0
  7  8  2  0  0  0
  8  9  1  0  0  0
  9 10  2  0  0  0
 10 11  1  0  0  0
 11 12  2  0  0  0
 12  1  1  0  0  0
  1  2  1  0  0  0
  2  3  2  0  0  0
  3  4  1  0  0  0
  4 15  1  0  0  0
 15 16  1  0  0  0
 16 18  1  0  0  0
 18 19  1  0  0  0
 19 20  2  0  0  0
 20 21  1  0  0  0
 21 22  1  0  0  0
 22 23  2  0  0  0
  4  5  2  0  0  0
  5  6  1  0  0  0
 12  7  1  0  0  0
  6  1  2  0  0  0
 23 19  1  0  0  0
 16 17  1  0  0  0
 21 24  1  0  0  0
M  END
> <minimizedAffinity>
-8.62570

$$$$
OCNT-2310096


 30 33  0  0  0  0  0  0  0  0999 V2000
   -5.6859   22.1613    3.9980 C   0  0  0  0  0  0  0  0  0  0  0  0
   -5.4782   21.0987    2.8897 C   0  0  0  0  0  0  0  0  0  0  0  0
   -6.2097   21.4489    1.5794 C   0  0  0  0  0  0  0  0  0  0  0  0
   -5.7289   22.7874    0.9920 C   0  0  0  0  0  0  0  0  0  0  0  0
   -5.6594   23.8142    2.0688 C   0  0  0  0  0  0  0  0  0  0  0  0
   -5.6189   23.5489    3.4199 C   0  0  0  0  0  0  0  0  0  0  0  0
   -5.6104   24.6666    4.2351 N   0  0  0  0  0  0  0  0  0  0  0  0
   -5.5818   25.7693    3.5027 C   0  0  0  0  0  0  0  0  0  0  0  0
   -5.6055   25.4878    1.7941 S   0  0  0  0  0  0  0  0  0  0  0  0
   -5.5284   27.1318    4.0750 C   0  0  0  0  0  0  0  0  0  0  0  0
   -6.0640   28.2650    3.4356 C   0  0  0  0  0  0  0  0  0  0  0  0
   -5.9857   29.5299    4.0297 C   0  0  0  0  0  0  0  0  0  0  0  0
   -5.3736   29.6731    5.2674 C   0  0  0  0  0  0  0  0  0  0  0  0
   -5.3010   30.8846    5.8328 F   0  0  0  0  0  0  0  0  0  0  0  0
   -4.8379   28.5758    5.9252 C   0  0  0  0  0  0  0  0  0  0  0  0
   -4.9166   27.3128    5.3312 C   0  0  0  0  0  0  0  0  0  0  0  0
   -8.4042   22.2149    6.4060 N   0  0  0  0  0  0  0  0  0  0  0  0
   -7.0867   22.2819    6.0092 C   0  0  0  0  0  0  0  0  0  0  0  0
   -6.1150   22.4878    6.7216 O   0  0  0  0  0  0  0  0  0  0  0  0
   -6.9842   22.0544    4.6522 N   0  0  0  0  0  0  0  0  0  0  0  0
   -9.0245   21.8255    5.7121 H   0  0  0  0  0  0  0  0  0  0  0  0
   -7.7253   22.4901    4.1183 H   0  0  0  0  0  0  0  0  0  0  0  0
  -10.4277   24.2847    6.7443 C   0  0  0  0  0  0  0  0  0  0  0  0
   -9.9092   23.4535    7.8835 C   0  0  0  0  0  0  0  0  0  0  0  0
  -10.4555   23.7421    9.0943 N   0  0  0  0  0  0  0  0  0  0  0  0
  -10.0274   23.0264   10.1516 C   0  0  0  0  0  0  0  0  0  0  0  0
  -10.5631   23.3058   11.3481 F   0  0  0  0  0  0  0  0  0  0  0  0
   -9.0741   22.0331   10.0711 C   0  0  0  0  0  0  0  0  0  0  0  0
   -8.5202   21.7468    8.8250 C   0  0  0  0  0  0  0  0  0  0  0  0
   -8.9348   22.4542    7.6945 C   0  0  0  0  0  0  0  0  0  0  0  0
 23 24  1  0  0  0
 24 25  1  0  0  0
 25 26  2  0  0  0
 26 27  1  0  0  0
 26 28  1  0  0  0
 28 29  2  0  0  0
 29 30  1  0  0  0
 30 17  1  0  0  0
 17 18  1  0  0  0
 18 19  2  0  0  0
 18 20  1  0  0  0
 20  1  1  0  0  0
  1  2  1  0  0  0
  2  3  1  0  0  0
  3  4  1  0  0  0
  4  5  1  0  0  0
  5  6  2  0  0  0
  6  7  1  0  0  0
  7  8  2  0  0  0
  8 10  1  0  0  0
 10 11  1  0  0  0
 11 12  2  0  0  0
 12 13  1  0  0  0
 13 14  1  0  0  0
 13 15  2  0  0  0
 15 16  1  0  0  0
  8  9  1  0  0  0
 30 24  2  0  0  0
  6  1  1  0  0  0
 16 10  2  0  0  0
  9  5  1  0  0  0
 17 21  1  0  0  0
 20 22  1  0  0  0
M  END
> <minimizedAffinity>
-10.01578

$$$$
OCNT-2310114


 31 34  0  0  0  0  0  0  0  0999 V2000
   -2.1037   25.8916    4.1516 C   0  0  0  0  0  0  0  0  0  0  0  0
   -0.8917   25.9451    3.4959 C   0  0  0  0  0  0  0  0  0  0  0  0
    0.3172   26.5433    4.5484 S   0  0  0  0  0  0  0  0  0  0  0  0
   -0.8409   26.6662    5.8241 C   0  0  0  0  0  0  0  0  0  0  0  0
   -2.0629   26.3334    5.4665 N   0  0  0  0  0  0  0  0  0  0  0  0
   -5.7363   24.5207    2.3723 C   0  0  0  0  0  0  0  0  0  0  0  0
   -5.6227   25.8559    2.7545 C   0  0  0  0  0  0  0  0  0  0  0  0
   -4.4361   26.3178    3.3356 C   0  0  0  0  0  0  0  0  0  0  0  0
   -3.3576   25.4462    3.5487 C   0  0  0  0  0  0  0  0  0  0  0  0
   -3.4940   24.1042    3.1601 C   0  0  0  0  0  0  0  0  0  0  0  0
   -4.6802   23.6399    2.5839 C   0  0  0  0  0  0  0  0  0  0  0  0
   -6.9592   24.0360    1.8253 N   0  0  0  0  0  0  0  0  0  0  0  0
   -7.3523   23.2224    2.3031 H   0  0  0  0  0  0  0  0  0  0  0  0
   -6.1644   25.1928   -0.4659 C   0  0  0  0  0  0  0  0  0  0  0  0
   -6.9920   23.7460    0.1562 S   0  0  0  0  0  0  0  0  0  0  0  0
   -8.3873   23.8449   -0.2188 O   0  0  0  0  0  0  0  0  0  0  0  0
   -6.2105   22.5740   -0.1663 O   0  0  0  0  0  0  0  0  0  0  0  0
   -0.5904   27.1582    7.0600 N   0  0  0  0  0  0  0  0  0  0  0  0
    0.2778   26.8245    7.4647 H   0  0  0  0  0  0  0  0  0  0  0  0
   -1.0831   28.3043    7.7103 C   0  0  0  0  0  0  0  0  0  0  0  0
   -0.1579   29.2751    8.1230 C   0  0  0  0  0  0  0  0  0  0  0  0
   -0.5636   30.4247    8.8078 C   0  0  0  0  0  0  0  0  0  0  0  0
   -1.9155   30.6353    9.1017 C   0  0  0  0  0  0  0  0  0  0  0  0
   -2.8452   29.6694    8.7004 C   0  0  0  0  0  0  0  0  0  0  0  0
   -2.4301   28.5191    8.0171 C   0  0  0  0  0  0  0  0  0  0  0  0
   -2.3575   31.8745    9.8387 C   0  0  0  0  0  0  0  0  0  0  0  0
   -3.3626   32.6123    9.0963 N   0  0  0  0  0  0  0  0  0  0  0  0
   -4.2369   33.5391    9.5749 C   0  0  0  0  0  0  0  0  0  0  0  0
   -4.9532   34.0197    8.5847 N   0  0  0  0  0  0  0  0  0  0  0  0
   -4.4707   33.3423    7.5011 C   0  0  0  0  0  0  0  0  0  0  0  0
   -3.4895   32.4737    7.7606 N   0  0  0  0  0  0  0  0  0  0  0  0
 14 15  1  0  0  0
 15 16  2  0  0  0
 15 17  2  0  0  0
 15 12  1  0  0  0
 12  6  1  0  0  0
  6  7  1  0  0  0
  7  8  2  0  0  0
  8  9  1  0  0  0
  9  1  1  0  0  0
  1  2  2  0  0  0
  2  3  1  0  0  0
  3  4  1  0  0  0
  4 18  1  0  0  0
 18 20  1  0  0  0
 20 21  1  0  0  0
 21 22  2  0  0  0
 22 23  1  0  0  0
 23 26  1  0  0  0
 26 27  1  0  0  0
 27 28  1  0  0  0
 28 29  2  0  0  0
 29 30  1  0  0  0
 30 31  2  0  0  0
 23 24  2  0  0  0
 24 25  1  0  0  0
  4  5  2  0  0  0
  9 10  2  0  0  0
 10 11  1  0  0  0
 11  6  2  0  0  0
  5  1  1  0  0  0
 25 20  2  0  0  0
 31 27  1  0  0  0
 12 13  1  0  0  0
 18 19  1  0  0  0
M  END
> <minimizedAffinity>
-9.06468

$$$$
OCNT-2310120


 26 29  0  0  0  0  0  0  0  0999 V2000
   -5.7114   29.1205    6.0763 C   0  0  0  0  0  0  0  0  0  0  0  0
   -4.5808   28.6339    6.6610 N   0  0  0  0  0  0  0  0  0  0  0  0
   -4.3863   28.9375    7.9434 C   0  0  0  0  0  0  0  0  0  0  0  0
   -5.2324   29.6853    8.6634 N   0  0  0  0  0  0  0  0  0  0  0  0
   -6.3409   30.1472    8.0413 C   0  0  0  0  0  0  0  0  0  0  0  0
   -6.6450   29.8960    6.7266 C   0  0  0  0  0  0  0  0  0  0  0  0
   -8.1111   30.4788    6.0583 Cl  0  0  0  0  0  0  0  0  0  0  0  0
   -5.8338   29.7211    3.8187 O   0  0  0  0  0  0  0  0  0  0  0  0
   -5.8525   28.7961    4.6295 C   0  0  0  0  0  0  0  0  0  0  0  0
   -5.9471   27.4579    4.2407 N   0  0  0  0  0  0  0  0  0  0  0  0
   -6.3602   26.3579    5.1338 C   0  0  0  0  0  0  0  0  0  0  0  0
   -5.4420   25.1363    4.9835 C   0  0  0  0  0  0  0  0  0  0  0  0
   -5.2602   24.8528    3.5266 C   0  0  0  0  0  0  0  0  0  0  0  0
   -5.4861   25.7818    2.5273 C   0  0  0  0  0  0  0  0  0  0  0  0
   -5.2139   25.2186    1.2411 C   0  0  0  0  0  0  0  0  0  0  0  0
   -4.7998   23.9057    1.3221 C   0  0  0  0  0  0  0  0  0  0  0  0
   -4.7277   23.3518    2.9403 S   0  0  0  0  0  0  0  0  0  0  0  0
   -5.9681   27.1792    2.8003 C   0  0  0  0  0  0  0  0  0  0  0  0
   -3.2469   28.4098    8.5213 N   0  0  0  0  0  0  0  0  0  0  0  0
   -3.5474   27.8069    9.2802 H   0  0  0  0  0  0  0  0  0  0  0  0
   -2.3490   27.7560    7.5841 C   0  0  0  0  0  0  0  0  0  0  0  0
   -0.9991   28.3901    7.5454 C   0  0  0  0  0  0  0  0  0  0  0  0
   -0.1285   28.7004    6.5210 C   0  0  0  0  0  0  0  0  0  0  0  0
    0.9980   29.3078    7.1252 C   0  0  0  0  0  0  0  0  0  0  0  0
    0.7413   29.3344    8.4762 C   0  0  0  0  0  0  0  0  0  0  0  0
   -0.4707   28.7829    8.7413 O   0  0  0  0  0  0  0  0  0  0  0  0
  8  9  2  0  0  0
  9  1  1  0  0  0
  1  2  2  0  0  0
  2  3  1  0  0  0
  3 19  1  0  0  0
 19 21  1  0  0  0
 21 22  1  0  0  0
 22 23  2  0  0  0
 23 24  1  0  0  0
 24 25  2  0  0  0
 25 26  1  0  0  0
  3  4  2  0  0  0
  4  5  1  0  0  0
  5  6  2  0  0  0
  6  7  1  0  0  0
  9 10  1  0  0  0
 10 11  1  0  0  0
 11 12  1  0  0  0
 12 13  1  0  0  0
 13 14  2  0  0  0
 14 15  1  0  0  0
 15 16  2  0  0  0
 16 17  1  0  0  0
 14 18  1  0  0  0
  6  1  1  0  0  0
 18 10  1  0  0  0
 26 22  1  0  0  0
 17 13  1  0  0  0
 19 20  1  0  0  0
M  END
> <minimizedAffinity>
-9.01307

$$$$
OCNT-2310123


 30 33  0  0  0  0  0  0  0  0999 V2000
   -5.1005   25.2525    3.0511 C   0  0  0  0  0  0  0  0  0  0  0  0
   -4.5302   25.2636    1.9675 O   0  0  0  0  0  0  0  0  0  0  0  0
   -6.1180   24.3812    3.3687 N   0  0  0  0  0  0  0  0  0  0  0  0
   -6.5830   24.5233    4.2531 H   0  0  0  0  0  0  0  0  0  0  0  0
   -3.7855   27.5364    5.6710 N   0  0  0  0  0  0  0  0  0  0  0  0
   -5.1372   27.8884    5.6166 C   0  0  0  0  0  0  0  0  0  0  0  0
   -5.7885   28.9264    6.4681 C   0  0  0  0  0  0  0  0  0  0  0  0
   -5.7593   27.0910    4.6810 C   0  0  0  0  0  0  0  0  0  0  0  0
   -4.7959   26.2422    4.0892 C   0  0  0  0  0  0  0  0  0  0  0  0
   -3.5630   26.6137    4.6302 C   0  0  0  0  0  0  0  0  0  0  0  0
   -2.1998   26.2124    4.1725 C   0  0  0  0  0  0  0  0  0  0  0  0
   -0.5041   30.1418    8.5294 C   0  0  0  0  0  0  0  0  0  0  0  0
   -1.3978   29.2062    7.8251 C   0  0  0  0  0  0  0  0  0  0  0  0
   -2.3014   29.3286    6.7965 C   0  0  0  0  0  0  0  0  0  0  0  0
   -2.8098   28.0229    6.6188 C   0  0  0  0  0  0  0  0  0  0  0  0
   -2.2341   27.1661    7.4705 N   0  0  0  0  0  0  0  0  0  0  0  0
   -1.3575   27.9121    8.2325 O   0  0  0  0  0  0  0  0  0  0  0  0
   -6.5508   23.2528    2.5312 C   0  0  0  0  0  0  0  0  0  0  0  0
   -5.4395   22.2493    2.2260 C   0  0  0  0  0  0  0  0  0  0  0  0
   -5.8539   21.6460    0.9006 C   0  0  0  0  0  0  0  0  0  0  0  0
   -6.6167   22.6411    0.2054 O   0  0  0  0  0  0  0  0  0  0  0  0
   -6.8155   23.7497    1.0930 C   0  0  0  0  0  0  0  0  0  0  0  0
   -7.8694   22.6056    3.0578 C   0  0  0  0  0  0  0  0  0  0  0  0
   -8.0875   22.5601    4.5531 C   0  0  0  0  0  0  0  0  0  0  0  0
   -7.0917   22.0553    5.4026 C   0  0  0  0  0  0  0  0  0  0  0  0
   -7.2923   22.0069    6.7842 C   0  0  0  0  0  0  0  0  0  0  0  0
   -8.4931   22.4580    7.3253 C   0  0  0  0  0  0  0  0  0  0  0  0
   -8.7420   22.3955    9.0269 Cl  0  0  0  0  0  0  0  0  0  0  0  0
   -9.4968   22.9511    6.4964 C   0  0  0  0  0  0  0  0  0  0  0  0
   -9.2959   22.9970    5.1148 C   0  0  0  0  0  0  0  0  0  0  0  0
 12 13  1  0  0  0
 13 14  2  0  0  0
 14 15  1  0  0  0
 15  5  1  0  0  0
  5  6  1  0  0  0
  6  7  1  0  0  0
  6  8  2  0  0  0
  8  9  1  0  0  0
  9  1  1  0  0  0
  1  2  2  0  0  0
  1  3  1  0  0  0
  3 18  1  0  0  0
 18 23  1  0  0  0
 23 24  1  0  0  0
 24 25  1  0  0  0
 25 26  2  0  0  0
 26 27  1  0  0  0
 27 28  1  0  0  0
 27 29  2  0  0  0
 29 30  1  0  0  0
 18 19  1  0  0  0
 19 20  1  0  0  0
 20 21  1  0  0  0
 21 22  1  0  0  0
  9 10  2  0  0  0
 10 11  1  0  0  0
 15 16  2  0  0  0
 16 17  1  0  0  0
 17 13  1  0  0  0
 10  5  1  0  0  0
 22 18  1  0  0  0
 30 24  2  0  0  0
  3  4  1  0  0  0
M  END
> <minimizedAffinity>
-9.81638

$$$$
OCNT-2310136


 28 30  0  0  0  0  0  0  0  0999 V2000
   -5.0111   29.2385    7.4048 N   0  0  0  0  0  0  0  0  0  0  0  0
   -6.2041   29.2583    6.7078 C   0  0  0  0  0  0  0  0  0  0  0  0
   -7.2681   29.6538    7.1644 O   0  0  0  0  0  0  0  0  0  0  0  0
   -4.1694   29.2421    6.8423 H   0  0  0  0  0  0  0  0  0  0  0  0
   -6.1194   28.7971    5.3048 C   0  0  0  0  0  0  0  0  0  0  0  0
   -6.1164   29.7398    4.2686 C   0  0  0  0  0  0  0  0  0  0  0  0
   -6.0091   29.3367    2.9401 C   0  0  0  0  0  0  0  0  0  0  0  0
   -5.9134   27.9786    2.6125 C   0  0  0  0  0  0  0  0  0  0  0  0
   -5.9458   27.0064    3.6361 C   0  0  0  0  0  0  0  0  0  0  0  0
   -6.0541   27.4345    4.9633 C   0  0  0  0  0  0  0  0  0  0  0  0
   -6.1173   26.3025    5.7496 N   0  0  0  0  0  0  0  0  0  0  0  0
   -5.9985   25.1793    4.9758 C   0  0  0  0  0  0  0  0  0  0  0  0
   -5.8950   25.5827    3.6616 C   0  0  0  0  0  0  0  0  0  0  0  0
   -6.2456   26.3147    6.7548 H   0  0  0  0  0  0  0  0  0  0  0  0
   -5.7717   24.7038    2.5405 C   0  0  0  0  0  0  0  0  0  0  0  0
   -5.6760   23.9914    1.6292 N   0  0  0  0  0  0  0  0  0  0  0  0
   -5.3683   28.8995    9.7968 C   0  0  0  0  0  0  0  0  0  0  0  0
   -4.9052   29.8731    8.7117 C   0  0  0  0  0  0  0  0  0  0  0  0
   -3.4895   30.3945    8.9085 C   0  0  0  0  0  0  0  0  0  0  0  0
   -3.2032   31.5449    9.6579 C   0  0  0  0  0  0  0  0  0  0  0  0
   -1.8851   31.9671    9.8422 C   0  0  0  0  0  0  0  0  0  0  0  0
   -0.8313   31.2411    9.2894 C   0  0  0  0  0  0  0  0  0  0  0  0
   -1.0834   30.0828    8.5429 C   0  0  0  0  0  0  0  0  0  0  0  0
   -2.4136   29.6655    8.3690 C   0  0  0  0  0  0  0  0  0  0  0  0
    0.0512   29.2691    7.9702 C   0  0  0  0  0  0  0  0  0  0  0  0
    1.1613   29.2664    8.7617 F   0  0  0  0  0  0  0  0  0  0  0  0
    0.4683   29.7167    6.7533 F   0  0  0  0  0  0  0  0  0  0  0  0
   -0.2841   27.9610    7.7963 F   0  0  0  0  0  0  0  0  0  0  0  0
 17 18  1  0  0  0
 18  1  1  0  0  0
  1  2  1  0  0  0
  2  3  2  0  0  0
  2  5  1  0  0  0
  5  6  1  0  0  0
  6  7  2  0  0  0
  7  8  1  0  0  0
  8  9  2  0  0  0
  9 10  1  0  0  0
 10 11  1  0  0  0
 11 12  1  0  0  0
 12 13  2  0  0  0
 13 15  1  0  0  0
 15 16  3  0  0  0
 18 19  1  0  0  0
 19 20  2  0  0  0
 20 21  1  0  0  0
 21 22  2  0  0  0
 22 23  1  0  0  0
 23 25  1  0  0  0
 25 26  1  0  0  0
 25 27  1  0  0  0
 25 28  1  0  0  0
 23 24  2  0  0  0
 10  5  2  0  0  0
 24 19  1  0  0  0
 13  9  1  0  0  0
  1  4  1  0  0  0
 11 14  1  0  0  0
M  END
> <minimizedAffinity>
-10.46619

$$$$
OCNT-2310153


 26 28  0  0  0  0  0  0  0  0999 V2000
   -5.9951   29.3967    4.8522 C   0  0  0  0  0  0  0  0  0  0  0  0
   -6.7326   28.3866    5.7265 C   0  0  0  0  0  0  0  0  0  0  0  0
   -6.0610   27.0533    5.3855 C   0  0  0  0  0  0  0  0  0  0  0  0
   -5.5239   27.2411    4.0328 N   0  0  0  0  0  0  0  0  0  0  0  0
   -5.7996   28.5986    3.5519 C   0  0  0  0  0  0  0  0  0  0  0  0
   -5.1695   26.1916    3.2138 C   0  0  0  0  0  0  0  0  0  0  0  0
   -4.1064   25.3325    3.5223 C   0  0  0  0  0  0  0  0  0  0  0  0
   -3.7590   24.2592    2.6945 C   0  0  0  0  0  0  0  0  0  0  0  0
   -4.4762   24.0072    1.5280 C   0  0  0  0  0  0  0  0  0  0  0  0
   -5.5463   24.8285    1.1918 C   0  0  0  0  0  0  0  0  0  0  0  0
   -5.8783   25.9018    2.0352 C   0  0  0  0  0  0  0  0  0  0  0  0
   -6.3486   24.7071    0.0925 O   0  0  0  0  0  0  0  0  0  0  0  0
   -7.3535   23.7087    0.1141 C   0  0  0  0  0  0  0  0  0  0  0  0
   -7.5564   23.2461    1.3665 F   0  0  0  0  0  0  0  0  0  0  0  0
   -8.5119   24.2508   -0.3239 F   0  0  0  0  0  0  0  0  0  0  0  0
   -7.0387   22.6796   -0.7022 F   0  0  0  0  0  0  0  0  0  0  0  0
   -4.6341   30.4662    6.6299 C   0  0  0  0  0  0  0  0  0  0  0  0
   -5.6389   30.8927    7.1910 O   0  0  0  0  0  0  0  0  0  0  0  0
   -4.7120   29.7683    5.4473 N   0  0  0  0  0  0  0  0  0  0  0  0
   -3.9006   29.2741    5.0988 H   0  0  0  0  0  0  0  0  0  0  0  0
   -2.7621   28.2113    7.6433 C   0  0  0  0  0  0  0  0  0  0  0  0
   -2.4942   29.6267    7.6008 N   0  0  0  0  0  0  0  0  0  0  0  0
   -1.3089   30.0934    8.0336 N   0  0  0  0  0  0  0  0  0  0  0  0
   -1.3234   31.4093    7.8971 N   0  0  0  0  0  0  0  0  0  0  0  0
   -2.5308   31.7617    7.3683 C   0  0  0  0  0  0  0  0  0  0  0  0
   -3.3086   30.6396    7.1560 C   0  0  0  0  0  0  0  0  0  0  0  0
 21 22  1  0  0  0
 22 23  1  0  0  0
 23 24  2  0  0  0
 24 25  1  0  0  0
 25 26  2  0  0  0
 26 17  1  0  0  0
 17 18  2  0  0  0
 17 19  1  0  0  0
 19  1  1  0  0  0
  1  2  1  0  0  0
  2  3  1  0  0  0
  3  4  1  0  0  0
  4  6  1  0  0  0
  6  7  2  0  0  0
  7  8  1  0  0  0
  8  9  2  0  0  0
  9 10  1  0  0  0
 10 12  1  0  0  0
 12 13  1  0  0  0
 13 14  1  0  0  0
 13 15  1  0  0  0
 13 16  1  0  0  0
 10 11  2  0  0  0
  4  5  1  0  0  0
 26 22  1  0  0  0
  5  1  1  0  0  0
 11  6  1  0  0  0
 19 20  1  0  0  0
M  END
> <minimizedAffinity>
-8.71170

$$$$
OCNT-2310161


 27 30  0  0  0  0  0  0  0  0999 V2000
   -4.8845   30.2988    5.3390 N   0  0  0  0  0  0  0  0  0  0  0  0
   -4.2255   29.7995    4.7418 H   0  0  0  0  0  0  0  0  0  0  0  0
   -4.4208   30.1175    6.7313 C   0  0  0  0  0  0  0  0  0  0  0  0
   -0.3976   28.4937    6.9561 C   0  0  0  0  0  0  0  0  0  0  0  0
   -1.5043   27.6494    6.9545 C   0  0  0  0  0  0  0  0  0  0  0  0
   -2.7911   28.1850    6.8739 C   0  0  0  0  0  0  0  0  0  0  0  0
   -2.9909   29.5748    6.7887 C   0  0  0  0  0  0  0  0  0  0  0  0
   -1.8617   30.4122    6.8052 C   0  0  0  0  0  0  0  0  0  0  0  0
   -0.5752   29.8733    6.8832 C   0  0  0  0  0  0  0  0  0  0  0  0
   -4.5559   31.3823    7.5411 C   0  0  0  0  0  0  0  0  0  0  0  0
   -4.5789   31.4806    8.8590 N   0  0  0  0  0  0  0  0  0  0  0  0
   -4.7181   32.8176    9.1275 C   0  0  0  0  0  0  0  0  0  0  0  0
   -4.7918   33.5450    7.9637 C   0  0  0  0  0  0  0  0  0  0  0  0
   -4.7044   32.6209    6.9613 N   0  0  0  0  0  0  0  0  0  0  0  0
   -4.7478   32.7939    5.9655 H   0  0  0  0  0  0  0  0  0  0  0  0
   -6.2048   29.6914    5.1341 C   0  0  0  0  0  0  0  0  0  0  0  0
   -6.0595   28.2958    4.5708 C   0  0  0  0  0  0  0  0  0  0  0  0
   -6.1866   27.1774    5.4036 C   0  0  0  0  0  0  0  0  0  0  0  0
   -6.0538   25.8814    4.8906 C   0  0  0  0  0  0  0  0  0  0  0  0
   -5.7979   25.6809    3.5266 C   0  0  0  0  0  0  0  0  0  0  0  0
   -5.6790   26.8007    2.6895 C   0  0  0  0  0  0  0  0  0  0  0  0
   -5.8097   28.0938    3.2093 C   0  0  0  0  0  0  0  0  0  0  0  0
   -5.6547   24.3641    2.9980 N   0  0  0  0  0  0  0  0  0  0  0  0
   -5.4225   23.1981    3.6993 C   0  0  0  0  0  0  0  0  0  0  0  0
   -5.3736   22.1889    2.7670 C   0  0  0  0  0  0  0  0  0  0  0  0
   -5.5576   22.6828    1.5090 N   0  0  0  0  0  0  0  0  0  0  0  0
   -5.7202   23.9786    1.6741 C   0  0  0  0  0  0  0  0  0  0  0  0
  4  5  2  0  0  0
  5  6  1  0  0  0
  6  7  2  0  0  0
  7  3  1  0  0  0
  3  1  1  0  0  0
  1 16  1  0  0  0
 16 17  1  0  0  0
 17 18  1  0  0  0
 18 19  2  0  0  0
 19 20  1  0  0  0
 20 23  1  0  0  0
 23 24  1  0  0  0
 24 25  2  0  0  0
 25 26  1  0  0  0
 26 27  2  0  0  0
 20 21  2  0  0  0
 21 22  1  0  0  0
  3 10  1  0  0  0
 10 11  2  0  0  0
 11 12  1  0  0  0
 12 13  2  0  0  0
 13 14  1  0  0  0
  7  8  1  0  0  0
  8  9  2  0  0  0
  9  4  1  0  0  0
 22 17  2  0  0  0
 14 10  1  0  0  0
 27 23  1  0  0  0
  1  2  1  0  0  0
 14 15  1  0  0  0
M  END
> <minimizedAffinity>
-9.06303

$$$$
OCNT-2310167


 33 34  0  0  0  0  0  0  0  0999 V2000
   -4.7370   26.8721    4.5068 N   0  0  0  0  0  0  0  0  0  0  0  0
   -5.3579   28.0347    4.9084 C   0  0  0  0  0  0  0  0  0  0  0  0
   -6.5065   28.3721    4.6605 O   0  0  0  0  0  0  0  0  0  0  0  0
   -4.5004   28.7951    5.6832 N   0  0  0  0  0  0  0  0  0  0  0  0
   -3.9373   26.6116    5.0644 H   0  0  0  0  0  0  0  0  0  0  0  0
   -3.5335   28.7377    5.3981 H   0  0  0  0  0  0  0  0  0  0  0  0
   -6.2541   24.0595    1.7074 C   0  0  0  0  0  0  0  0  0  0  0  0
   -5.8608   25.3593    1.3379 C   0  0  0  0  0  0  0  0  0  0  0  0
   -5.3686   26.2677    2.2784 C   0  0  0  0  0  0  0  0  0  0  0  0
   -5.2407   25.9027    3.6185 C   0  0  0  0  0  0  0  0  0  0  0  0
   -5.6422   24.6257    4.0103 C   0  0  0  0  0  0  0  0  0  0  0  0
   -6.1487   23.7076    3.0692 C   0  0  0  0  0  0  0  0  0  0  0  0
   -6.6731   22.1194    3.6974 S   0  0  0  0  0  0  0  0  0  0  0  0
   -6.4852   22.3137    5.3577 N   0  0  0  0  0  0  0  0  0  0  0  0
   -8.0879   21.9575    3.4599 O   0  0  0  0  0  0  0  0  0  0  0  0
   -5.7176   21.1192    3.2814 O   0  0  0  0  0  0  0  0  0  0  0  0
   -5.7272   21.7220    5.6951 H   0  0  0  0  0  0  0  0  0  0  0  0
   -6.4131   23.2872    5.6471 H   0  0  0  0  0  0  0  0  0  0  0  0
   -7.7853   23.8313   -0.2823 C   0  0  0  0  0  0  0  0  0  0  0  0
   -6.7429   23.1535    0.5994 C   0  0  0  0  0  0  0  0  0  0  0  0
   -4.9296   30.0915    6.1797 C   0  0  0  0  0  0  0  0  0  0  0  0
   -5.3551   30.0292    7.6472 C   0  0  0  0  0  0  0  0  0  0  0  0
   -4.4063   29.1848    8.5022 C   0  0  0  0  0  0  0  0  0  0  0  0
   -3.0541   29.8207    8.7183 C   0  0  0  0  0  0  0  0  0  0  0  0
   -2.9367   31.0067    9.4533 C   0  0  0  0  0  0  0  0  0  0  0  0
   -1.6887   31.5973    9.6504 C   0  0  0  0  0  0  0  0  0  0  0  0
   -0.5436   31.0094    9.1137 C   0  0  0  0  0  0  0  0  0  0  0  0
   -0.6356   29.8249    8.3690 C   0  0  0  0  0  0  0  0  0  0  0  0
   -1.8969   29.2343    8.1849 C   0  0  0  0  0  0  0  0  0  0  0  0
    0.6007   29.1704    7.8045 C   0  0  0  0  0  0  0  0  0  0  0  0
    1.6801   29.2528    8.6327 F   0  0  0  0  0  0  0  0  0  0  0  0
    1.0003   29.7211    6.6232 F   0  0  0  0  0  0  0  0  0  0  0  0
    0.4202   27.8440    7.5563 F   0  0  0  0  0  0  0  0  0  0  0  0
 19 20  1  0  0  0
 20  7  1  0  0  0
  7  8  1  0  0  0
  8  9  2  0  0  0
  9 10  1  0  0  0
 10  1  1  0  0  0
  1  2  1  0  0  0
  2  3  2  0  0  0
  2  4  1  0  0  0
  4 21  1  0  0  0
 21 22  1  0  0  0
 22 23  1  0  0  0
 23 24  1  0  0  0
 24 25  2  0  0  0
 25 26  1  0  0  0
 26 27  2  0  0  0
 27 28  1  0  0  0
 28 30  1  0  0  0
 30 31  1  0  0  0
 30 32  1  0  0  0
 30 33  1  0  0  0
 28 29  2  0  0  0
 10 11  2  0  0  0
 11 12  1  0  0  0
 12 13  1  0  0  0
 13 14  1  0  0  0
 13 15  2  0  0  0
 13 16  2  0  0  0
 12  7  2  0  0  0
 29 24  1  0  0  0
  1  5  1  0  0  0
  4  6  1  0  0  0
 14 17  1  0  0  0
 14 18  1  0  0  0
M  END
> <minimizedAffinity>
-10.07757

$$$$
OCNT-2310174


 26 30  0  0  0  0  0  0  0  0999 V2000
   -5.1962   31.7066    9.4450 Cl  0  0  0  0  0  0  0  0  0  0  0  0
   -3.5478   31.3079    9.2229 C   0  0  0  0  0  0  0  0  0  0  0  0
   -2.5307   32.0045    9.8735 C   0  0  0  0  0  0  0  0  0  0  0  0
   -1.2048   31.6430    9.6577 C   0  0  0  0  0  0  0  0  0  0  0  0
   -0.8759   30.5884    8.7972 C   0  0  0  0  0  0  0  0  0  0  0  0
   -1.9202   29.8972    8.1578 C   0  0  0  0  0  0  0  0  0  0  0  0
   -3.2657   30.2398    8.3496 C   0  0  0  0  0  0  0  0  0  0  0  0
   -4.0388   29.3511    7.5448 C   0  0  0  0  0  0  0  0  0  0  0  0
   -3.1729   28.5007    6.8888 C   0  0  0  0  0  0  0  0  0  0  0  0
   -3.4308   27.3757    5.9419 C   0  0  0  0  0  0  0  0  0  0  0  0
   -2.2325   27.0359    5.1534 N   0  0  0  0  0  0  0  0  0  0  0  0
   -1.0724   26.8617    6.0509 C   0  0  0  0  0  0  0  0  0  0  0  0
   -0.7194   28.1793    6.7525 C   0  0  0  0  0  0  0  0  0  0  0  0
   -1.9010   28.8394    7.2789 N   0  0  0  0  0  0  0  0  0  0  0  0
   -2.4951   25.8190    4.3564 C   0  0  0  0  0  0  0  0  0  0  0  0
   -3.6812   25.9430    3.4600 C   0  0  0  0  0  0  0  0  0  0  0  0
   -4.4636   26.9809    3.2472 N   0  0  0  0  0  0  0  0  0  0  0  0
   -5.4194   26.5628    2.3437 N   0  0  0  0  0  0  0  0  0  0  0  0
   -5.1513   25.3017    2.0643 C   0  0  0  0  0  0  0  0  0  0  0  0
   -4.0484   24.8396    2.7360 O   0  0  0  0  0  0  0  0  0  0  0  0
   -5.8352   24.3713    1.1752 C   0  0  0  0  0  0  0  0  0  0  0  0
   -5.5796   22.9953    1.2807 C   0  0  0  0  0  0  0  0  0  0  0  0
   -6.2222   22.0809    0.4412 C   0  0  0  0  0  0  0  0  0  0  0  0
   -7.1301   22.5313   -0.5147 C   0  0  0  0  0  0  0  0  0  0  0  0
   -7.3951   23.8941   -0.6333 C   0  0  0  0  0  0  0  0  0  0  0  0
   -6.7515   24.8085    0.2056 C   0  0  0  0  0  0  0  0  0  0  0  0
  1  2  1  0  0  0
  2  3  1  0  0  0
  3  4  2  0  0  0
  4  5  1  0  0  0
  5  6  2  0  0  0
  6  7  1  0  0  0
  7  8  1  0  0  0
  8  9  2  0  0  0
  9 10  1  0  0  0
 10 11  1  0  0  0
 11 15  1  0  0  0
 15 16  1  0  0  0
 16 17  2  0  0  0
 17 18  1  0  0  0
 18 19  2  0  0  0
 19 21  1  0  0  0
 21 22  2  0  0  0
 22 23  1  0  0  0
 23 24  2  0  0  0
 24 25  1  0  0  0
 25 26  2  0  0  0
 19 20  1  0  0  0
 11 12  1  0  0  0
 12 13  1  0  0  0
 13 14  1  0  0  0
  7  2  2  0  0  0
 14  9  1  0  0  0
 14  6  1  0  0  0
 20 16  1  0  0  0
 26 21  1  0  0  0
M  END
> <minimizedAffinity>
-10.96714

$$$$
OCNT-2310178


 27 29  0  0  0  0  0  0  0  0999 V2000
   -4.0499   31.6463    6.3259 O   0  0  0  0  0  0  0  0  0  0  0  0
   -4.0951   31.3265    7.5085 C   0  0  0  0  0  0  0  0  0  0  0  0
   -5.2593   30.8895    8.1025 N   0  0  0  0  0  0  0  0  0  0  0  0
   -5.1963   30.4001    8.9863 H   0  0  0  0  0  0  0  0  0  0  0  0
   -2.9343   31.3671    8.3903 C   0  0  0  0  0  0  0  0  0  0  0  0
   -2.6603   32.3255    9.3530 C   0  0  0  0  0  0  0  0  0  0  0  0
   -1.4563   32.0004    9.8930 N   0  0  0  0  0  0  0  0  0  0  0  0
   -0.9131   30.9028    9.3629 N   0  0  0  0  0  0  0  0  0  0  0  0
   -1.8039   30.4825    8.4457 C   0  0  0  0  0  0  0  0  0  0  0  0
   -0.9402   32.4865   10.6197 H   0  0  0  0  0  0  0  0  0  0  0  0
   -1.5243   29.2660    7.6865 C   0  0  0  0  0  0  0  0  0  0  0  0
   -0.3922   29.1820    6.8785 C   0  0  0  0  0  0  0  0  0  0  0  0
   -0.0455   28.0917    6.1460 N   0  0  0  0  0  0  0  0  0  0  0  0
   -0.8675   27.0255    6.2334 C   0  0  0  0  0  0  0  0  0  0  0  0
   -2.0078   26.9958    7.0194 C   0  0  0  0  0  0  0  0  0  0  0  0
   -2.3347   28.1316    7.7599 C   0  0  0  0  0  0  0  0  0  0  0  0
   -6.4511   30.6098    7.3168 C   0  0  0  0  0  0  0  0  0  0  0  0
   -6.6564   29.0962    7.1423 C   0  0  0  0  0  0  0  0  0  0  0  0
   -5.7947   28.3961    8.0526 O   0  0  0  0  0  0  0  0  0  0  0  0
   -5.7087   27.4861    7.7161 H   0  0  0  0  0  0  0  0  0  0  0  0
   -6.3955   28.6357    5.7254 C   0  0  0  0  0  0  0  0  0  0  0  0
   -6.3031   29.5713    4.6838 C   0  0  0  0  0  0  0  0  0  0  0  0
   -6.0531   29.1554    3.3738 C   0  0  0  0  0  0  0  0  0  0  0  0
   -5.8903   27.8002    3.0892 C   0  0  0  0  0  0  0  0  0  0  0  0
   -5.9763   26.8644    4.1167 C   0  0  0  0  0  0  0  0  0  0  0  0
   -5.7755   25.1916    3.7685 Cl  0  0  0  0  0  0  0  0  0  0  0  0
   -6.2251   27.2733    5.4270 C   0  0  0  0  0  0  0  0  0  0  0  0
  1  2  2  0  0  0
  2  3  1  0  0  0
  3 17  1  0  0  0
 17 18  1  0  0  0
 18 19  1  0  0  0
 18 21  1  0  0  0
 21 22  2  0  0  0
 22 23  1  0  0  0
 23 24  2  0  0  0
 24 25  1  0  0  0
 25 26  1  0  0  0
 25 27  2  0  0  0
  2  5  1  0  0  0
  5  6  2  0  0  0
  6  7  1  0  0  0
  7  8  1  0  0  0
  8  9  2  0  0  0
  9 11  1  0  0  0
 11 12  2  0  0  0
 12 13  1  0  0  0
 13 14  2  0  0  0
 14 15  1  0  0  0
 15 16  2  0  0  0
 27 21  1  0  0  0
  9  5  1  0  0  0
 16 11  1  0  0  0
  3  4  1  0  0  0
 19 20  1  0  0  0
  7 10  1  0  0  0
M  END
> <minimizedAffinity>
-9.25149

$$$$
OCNT-2310180


 24 26  0  0  0  0  0  0  0  0999 V2000
   -4.5448   24.8089    3.4720 C   0  0  0  0  0  0  0  0  0  0  0  0
   -3.2619   25.3081    3.5459 C   0  0  0  0  0  0  0  0  0  0  0  0
   -3.1846   26.4897    4.3430 C   0  0  0  0  0  0  0  0  0  0  0  0
   -4.4130   26.8671    4.8587 C   0  0  0  0  0  0  0  0  0  0  0  0
   -5.6405   25.7677    4.3673 S   0  0  0  0  0  0  0  0  0  0  0  0
   -5.6036   24.9954    0.6780 C   0  0  0  0  0  0  0  0  0  0  0  0
   -5.5175   23.7069    1.4399 C   0  0  0  0  0  0  0  0  0  0  0  0
   -5.9210   22.5178    0.8376 C   0  0  0  0  0  0  0  0  0  0  0  0
   -5.8829   21.3052    1.4330 N   0  0  0  0  0  0  0  0  0  0  0  0
   -5.4203   21.2660    2.6976 C   0  0  0  0  0  0  0  0  0  0  0  0
   -4.9858   22.3817    3.3901 C   0  0  0  0  0  0  0  0  0  0  0  0
   -5.0293   23.6278    2.7546 C   0  0  0  0  0  0  0  0  0  0  0  0
   -4.7856   27.9941    5.7073 C   0  0  0  0  0  0  0  0  0  0  0  0
   -5.9321   28.2270    6.0854 O   0  0  0  0  0  0  0  0  0  0  0  0
   -3.7466   28.8336    6.0709 N   0  0  0  0  0  0  0  0  0  0  0  0
   -2.8226   28.6707    5.6948 H   0  0  0  0  0  0  0  0  0  0  0  0
   -3.9568   30.0357    6.8654 C   0  0  0  0  0  0  0  0  0  0  0  0
   -2.8418   30.3133    7.8926 C   0  0  0  0  0  0  0  0  0  0  0  0
   -1.9930   31.5493    7.5677 C   0  0  0  0  0  0  0  0  0  0  0  0
   -1.3671   31.9598    8.9001 C   0  0  0  0  0  0  0  0  0  0  0  0
   -2.3082   31.4410    9.9863 C   0  0  0  0  0  0  0  0  0  0  0  0
   -3.4300   30.6979    9.2598 C   0  0  0  0  0  0  0  0  0  0  0  0
   -1.9952   29.1055    8.0200 C   0  0  0  0  0  0  0  0  0  0  0  0
   -1.3466   28.1457    8.0899 N   0  0  0  0  0  0  0  0  0  0  0  0
  6  7  1  0  0  0
  7  8  2  0  0  0
  8  9  1  0  0  0
  9 10  2  0  0  0
 10 11  1  0  0  0
 11 12  2  0  0  0
 12  1  1  0  0  0
  1  2  2  0  0  0
  2  3  1  0  0  0
  3  4  2  0  0  0
  4 13  1  0  0  0
 13 14  2  0  0  0
 13 15  1  0  0  0
 15 17  1  0  0  0
 17 18  1  0  0  0
 18 23  1  0  0  0
 23 24  3  0  0  0
 18 19  1  0  0  0
 19 20  1  0  0  0
 20 21  1  0  0  0
 21 22  1  0  0  0
  4  5  1  0  0  0
 12  7  1  0  0  0
  5  1  1  0  0  0
 22 18  1  0  0  0
 15 16  1  0  0  0
M  END
> <minimizedAffinity>
-8.67156

$$$$
OCNT-2310188


 24 26  0  0  0  0  0  0  0  0999 V2000
   -6.7537   30.2173    6.0731 N   0  0  0  0  0  0  0  0  0  0  0  0
   -7.7535   30.3581    6.2098 H   0  0  0  0  0  0  0  0  0  0  0  0
   -6.4775   29.1571    5.2083 C   0  0  0  0  0  0  0  0  0  0  0  0
   -6.3651   27.8271    5.6232 C   0  0  0  0  0  0  0  0  0  0  0  0
   -6.0131   26.8107    4.7228 C   0  0  0  0  0  0  0  0  0  0  0  0
   -5.7361   27.1027    3.3833 C   0  0  0  0  0  0  0  0  0  0  0  0
   -5.8026   28.4368    2.9713 C   0  0  0  0  0  0  0  0  0  0  0  0
   -6.1543   29.4467    3.8767 C   0  0  0  0  0  0  0  0  0  0  0  0
   -5.3677   26.0416    2.4611 C   0  0  0  0  0  0  0  0  0  0  0  0
   -4.1930   25.3192    2.5009 C   0  0  0  0  0  0  0  0  0  0  0  0
   -4.2425   24.4420    1.4561 N   0  0  0  0  0  0  0  0  0  0  0  0
   -5.3659   24.5388    0.7286 N   0  0  0  0  0  0  0  0  0  0  0  0
   -6.0490   25.5108    1.3396 C   0  0  0  0  0  0  0  0  0  0  0  0
   -3.5479   23.7561    1.1791 H   0  0  0  0  0  0  0  0  0  0  0  0
   -6.0221   30.3351    7.3439 C   0  0  0  0  0  0  0  0  0  0  0  0
   -2.4908   30.2687    7.4509 N   0  0  0  0  0  0  0  0  0  0  0  0
   -2.6424   31.3071    6.6030 N   0  0  0  0  0  0  0  0  0  0  0  0
   -3.9517   31.4600    6.4713 N   0  0  0  0  0  0  0  0  0  0  0  0
   -4.5343   30.4862    7.2391 C   0  0  0  0  0  0  0  0  0  0  0  0
   -3.6451   29.7117    7.8814 N   0  0  0  0  0  0  0  0  0  0  0  0
   -1.2831   28.2558    8.2157 C   0  0  0  0  0  0  0  0  0  0  0  0
   -1.1676   29.7336    7.7926 C   0  0  0  0  0  0  0  0  0  0  0  0
   -0.2009   29.8081    6.5921 C   0  0  0  0  0  0  0  0  0  0  0  0
   -0.5807   30.5548    8.9533 C   0  0  0  0  0  0  0  0  0  0  0  0
 21 22  1  0  0  0
 22 23  1  0  0  0
 22 24  1  0  0  0
 22 16  1  0  0  0
 16 17  1  0  0  0
 17 18  2  0  0  0
 18 19  1  0  0  0
 19 15  1  0  0  0
 15  1  1  0  0  0
  1  3  1  0  0  0
  3  4  1  0  0  0
  4  5  2  0  0  0
  5  6  1  0  0  0
  6  9  1  0  0  0
  9 10  2  0  0  0
 10 11  1  0  0  0
 11 12  1  0  0  0
 12 13  2  0  0  0
  6  7  2  0  0  0
  7  8  1  0  0  0
 19 20  2  0  0  0
 20 16  1  0  0  0
  8  3  2  0  0  0
 13  9  1  0  0  0
  1  2  1  0  0  0
 11 14  1  0  0  0
M  END
> <minimizedAffinity>
-8.71105

$$$$
