OCNT-2328376


 16 16  0  0  0  0  0  0  0  0999 V2000
   -0.6595   29.0023    7.5794 C   0  0  0  0  0  0  0  0  0  0  0  0
    0.8174   28.9779    8.0015 C   0  0  0  0  0  0  0  0  0  0  0  0
   -0.9174   30.1459    6.5889 C   0  0  0  0  0  0  0  0  0  0  0  0
   -0.9434   27.6628    6.8690 C   0  0  0  0  0  0  0  0  0  0  0  0
   -1.8060   26.8590    7.2047 O   0  0  0  0  0  0  0  0  0  0  0  0
   -0.1294   27.5065    5.7807 O   0  0  0  0  0  0  0  0  0  0  0  0
    0.5079   26.3847    3.7341 C   0  0  0  0  0  0  0  0  0  0  0  0
   -0.4023   26.3712    4.9477 C   0  0  0  0  0  0  0  0  0  0  0  0
   -1.6069   29.0562    8.6711 O   0  0  0  0  0  0  0  0  0  0  0  0
   -2.3025   30.2196    8.8200 C   0  0  0  0  0  0  0  0  0  0  0  0
   -1.7246   31.2623    9.5441 C   0  0  0  0  0  0  0  0  0  0  0  0
   -2.4415   32.4409    9.7575 C   0  0  0  0  0  0  0  0  0  0  0  0
   -3.7423   32.5557    9.2686 C   0  0  0  0  0  0  0  0  0  0  0  0
   -4.6285   34.0066    9.5315 Cl  0  0  0  0  0  0  0  0  0  0  0  0
   -4.3355   31.4972    8.5806 C   0  0  0  0  0  0  0  0  0  0  0  0
   -3.6167   30.3190    8.3680 C   0  0  0  0  0  0  0  0  0  0  0  0
  7  8  1  0  0  0
  8  6  1  0  0  0
  6  4  1  0  0  0
  4  5  2  0  0  0
  4  1  1  0  0  0
  1  2  1  0  0  0
  1  3  1  0  0  0
  1  9  1  0  0  0
  9 10  1  0  0  0
 10 11  1  0  0  0
 11 12  2  0  0  0
 12 13  1  0  0  0
 13 14  1  0  0  0
 13 15  2  0  0  0
 15 16  1  0  0  0
 16 10  2  0  0  0
M  END
> <minimizedAffinity>
-6.65452

$$$$
OCNT-2328378


 20 22  0  0  0  0  0  0  0  0999 V2000
   -5.3295   23.8547    4.0732 C   0  0  0  0  0  0  0  0  0  0  0  0
   -4.6880   29.1876    6.1089 C   0  0  0  0  0  0  0  0  0  0  0  0
   -4.8527   27.7453    5.9487 N   0  0  0  0  0  0  0  0  0  0  0  0
   -3.7269   27.1712    5.1909 C   0  0  0  0  0  0  0  0  0  0  0  0
   -3.9032   25.6546    4.9476 C   0  0  0  0  0  0  0  0  0  0  0  0
   -5.1609   25.3330    4.2240 N   0  0  0  0  0  0  0  0  0  0  0  0
   -6.2834   25.9204    5.0011 C   0  0  0  0  0  0  0  0  0  0  0  0
   -6.1099   27.4373    5.2446 C   0  0  0  0  0  0  0  0  0  0  0  0
   -6.2826   23.2374    5.1073 C   0  0  0  0  0  0  0  0  0  0  0  0
   -5.7608   22.5636    6.2250 C   0  0  0  0  0  0  0  0  0  0  0  0
   -6.6105   21.9811    7.1679 C   0  0  0  0  0  0  0  0  0  0  0  0
   -7.9920   22.0585    7.0055 C   0  0  0  0  0  0  0  0  0  0  0  0
   -8.5265   22.7164    5.9001 C   0  0  0  0  0  0  0  0  0  0  0  0
   -7.6789   23.2990    4.9564 C   0  0  0  0  0  0  0  0  0  0  0  0
   -5.7655   23.4279    2.6637 C   0  0  0  0  0  0  0  0  0  0  0  0
   -5.6806   22.0771    2.2840 C   0  0  0  0  0  0  0  0  0  0  0  0
   -6.0876   21.6664    1.0128 C   0  0  0  0  0  0  0  0  0  0  0  0
   -6.5895   22.5966    0.1053 C   0  0  0  0  0  0  0  0  0  0  0  0
   -6.6873   23.9382    0.4670 C   0  0  0  0  0  0  0  0  0  0  0  0
   -6.2813   24.3509    1.7372 C   0  0  0  0  0  0  0  0  0  0  0  0
  2  3  1  0  0  0
  3  4  1  0  0  0
  4  5  1  0  0  0
  5  6  1  0  0  0
  6  1  1  0  0  0
  1  9  1  0  0  0
  9 10  2  0  0  0
 10 11  1  0  0  0
 11 12  2  0  0  0
 12 13  1  0  0  0
 13 14  2  0  0  0
  1 15  1  0  0  0
 15 16  2  0  0  0
 16 17  1  0  0  0
 17 18  2  0  0  0
 18 19  1  0  0  0
 19 20  2  0  0  0
  6  7  1  0  0  0
  7  8  1  0  0  0
  8  3  1  0  0  0
 14  9  1  0  0  0
 20 15  1  0  0  0
M  END
> <minimizedAffinity>
-7.97283

$$$$
OCNT-2328381


 25 25  0  0  0  0  0  0  0  0999 V2000
   -4.9244   28.3885    5.8736 C   0  0  0  0  0  0  0  0  0  0  0  0
   -3.8279   28.4895    6.6494 C   0  0  0  0  0  0  0  0  0  0  0  0
   -3.5982   29.6014    7.6377 C   0  0  0  0  0  0  0  0  0  0  0  0
   -4.5911   30.7825    7.4566 C   0  0  0  0  0  0  0  0  0  0  0  0
   -6.0272   30.2220    7.2452 C   0  0  0  0  0  0  0  0  0  0  0  0
   -7.0709   31.2624    7.2316 N   0  0  0  0  0  0  0  0  0  0  0  0
   -6.0639   29.3727    5.9592 C   0  0  0  0  0  0  0  0  0  0  0  0
   -6.6727   32.1324    6.8563 H   0  0  0  0  0  0  0  0  0  0  0  0
   -7.8332   31.0081    6.6055 H   0  0  0  0  0  0  0  0  0  0  0  0
   -4.5313   31.7131    8.5954 N   0  0  0  0  0  0  0  0  0  0  0  0
   -4.6482   33.0727    8.4110 C   0  0  0  0  0  0  0  0  0  0  0  0
   -4.6835   33.8622    9.6912 C   0  0  0  0  0  0  0  0  0  0  0  0
   -4.7373   33.6081    7.3101 O   0  0  0  0  0  0  0  0  0  0  0  0
   -4.7640   31.3488    9.5089 H   0  0  0  0  0  0  0  0  0  0  0  0
   -5.1050   27.2941    4.8755 C   0  0  0  0  0  0  0  0  0  0  0  0
   -6.0714   27.2306    4.1302 O   0  0  0  0  0  0  0  0  0  0  0  0
   -4.0835   26.4035    4.9250 O   0  0  0  0  0  0  0  0  0  0  0  0
   -1.8566   25.9607    4.0854 C   0  0  0  0  0  0  0  0  0  0  0  0
   -3.2945   26.2908    3.7318 C   0  0  0  0  0  0  0  0  0  0  0  0
   -2.2688   30.0905    7.4215 O   0  0  0  0  0  0  0  0  0  0  0  0
   -1.2662   29.5044    8.2540 C   0  0  0  0  0  0  0  0  0  0  0  0
   -0.5082   30.5817    9.0520 C   0  0  0  0  0  0  0  0  0  0  0  0
   -1.1796   31.9446    9.1147 C   0  0  0  0  0  0  0  0  0  0  0  0
   -0.3534   28.6085    7.3964 C   0  0  0  0  0  0  0  0  0  0  0  0
    0.5676   29.3302    6.4206 C   0  0  0  0  0  0  0  0  0  0  0  0
 18 19  1  0  0  0
 19 17  1  0  0  0
 17 15  1  0  0  0
 15 16  2  0  0  0
 15  1  1  0  0  0
  1  2  2  0  0  0
  2  3  1  0  0  0
  3 20  1  0  0  0
 20 21  1  0  0  0
 21 22  1  0  0  0
 22 23  1  0  0  0
 21 24  1  0  0  0
 24 25  1  0  0  0
  3  4  1  0  0  0
  4 10  1  0  0  0
 10 11  1  0  0  0
 11 12  1  0  0  0
 11 13  2  0  0  0
  4  5  1  0  0  0
  5  6  1  0  0  0
  5  7  1  0  0  0
  7  1  1  0  0  0
 10 14  1  0  0  0
  6  8  1  0  0  0
  6  9  1  0  0  0
M  END
> <minimizedAffinity>
-7.12777

$$$$
OCNT-2328382


 20 21  0  0  0  0  0  0  0  0999 V2000
   -2.5709   27.2279    6.0895 C   0  0  0  0  0  0  0  0  0  0  0  0
   -3.6449   26.9738    5.2074 C   0  0  0  0  0  0  0  0  0  0  0  0
   -3.4374   26.3414    3.9851 C   0  0  0  0  0  0  0  0  0  0  0  0
   -4.8993   26.0259    2.8297 Br  0  0  0  0  0  0  0  0  0  0  0  0
   -2.1656   25.9263    3.6187 C   0  0  0  0  0  0  0  0  0  0  0  0
   -1.0965   26.1633    4.4846 C   0  0  0  0  0  0  0  0  0  0  0  0
    0.6254   25.5574    3.9376 Br  0  0  0  0  0  0  0  0  0  0  0  0
   -1.2657   26.8509    5.7092 C   0  0  0  0  0  0  0  0  0  0  0  0
   -0.1812   26.9703    6.6026 N   0  0  0  0  0  0  0  0  0  0  0  0
   -0.1912   27.8127    7.1660 H   0  0  0  0  0  0  0  0  0  0  0  0
    0.7163   26.8446    6.1372 H   0  0  0  0  0  0  0  0  0  0  0  0
   -2.9003   27.8503    7.4369 C   0  0  0  0  0  0  0  0  0  0  0  0
   -4.9168   29.1175    7.7968 C   0  0  0  0  0  0  0  0  0  0  0  0
   -3.5300   29.1842    7.3364 N   0  0  0  0  0  0  0  0  0  0  0  0
   -2.7286   30.2635    7.9560 C   0  0  0  0  0  0  0  0  0  0  0  0
   -1.2140   29.9797    8.0886 C   0  0  0  0  0  0  0  0  0  0  0  0
   -0.5158   30.8570    9.1346 C   0  0  0  0  0  0  0  0  0  0  0  0
   -1.2162   32.1939    9.3268 C   0  0  0  0  0  0  0  0  0  0  0  0
   -2.6601   32.0151    9.7974 C   0  0  0  0  0  0  0  0  0  0  0  0
   -3.3100   30.7154    9.3080 C   0  0  0  0  0  0  0  0  0  0  0  0
 13 14  1  0  0  0
 14 12  1  0  0  0
 12  1  1  0  0  0
  1  2  2  0  0  0
  2  3  1  0  0  0
  3  4  1  0  0  0
  3  5  2  0  0  0
  5  6  1  0  0  0
  6  7  1  0  0  0
  6  8  2  0  0  0
  8  9  1  0  0  0
 14 15  1  0  0  0
 15 16  1  0  0  0
 16 17  1  0  0  0
 17 18  1  0  0  0
 18 19  1  0  0  0
 19 20  1  0  0  0
  8  1  1  0  0  0
 20 15  1  0  0  0
  9 10  1  0  0  0
  9 11  1  0  0  0
M  END
> <minimizedAffinity>
-7.84317

$$$$
OCNT-2328385


 28 28  0  0  0  0  0  0  0  0999 V2000
   -6.4520   29.4364    4.9200 C   0  0  0  0  0  0  0  0  0  0  0  0
   -5.3843   30.2969    4.5225 O   0  0  0  0  0  0  0  0  0  0  0  0
   -4.5676   29.7687    4.5340 H   0  0  0  0  0  0  0  0  0  0  0  0
   -6.1522   28.0117    4.4734 C   0  0  0  0  0  0  0  0  0  0  0  0
   -5.9300   27.7685    3.1040 C   0  0  0  0  0  0  0  0  0  0  0  0
   -5.6672   26.4810    2.6275 C   0  0  0  0  0  0  0  0  0  0  0  0
   -5.6422   25.4043    3.5104 C   0  0  0  0  0  0  0  0  0  0  0  0
   -5.8660   25.6224    4.8667 C   0  0  0  0  0  0  0  0  0  0  0  0
   -6.1285   26.9129    5.3426 C   0  0  0  0  0  0  0  0  0  0  0  0
   -5.3839   24.1031    2.9949 N   0  0  0  0  0  0  0  0  0  0  0  0
   -4.4965   23.9552    2.5161 H   0  0  0  0  0  0  0  0  0  0  0  0
   -6.6312   23.2029    2.3120 S   0  0  0  0  0  0  0  0  0  0  0  0
   -5.8935   21.5894    2.1411 C   0  0  0  0  0  0  0  0  0  0  0  0
   -6.9444   23.7099    0.9953 O   0  0  0  0  0  0  0  0  0  0  0  0
   -7.6472   23.1072    3.3389 O   0  0  0  0  0  0  0  0  0  0  0  0
   -6.7736   29.6813    6.4065 C   0  0  0  0  0  0  0  0  0  0  0  0
   -5.6179   30.1937    7.2782 C   0  0  0  0  0  0  0  0  0  0  0  0
   -5.9594   30.9681    8.5642 C   0  0  0  0  0  0  0  0  0  0  0  0
   -4.8933   31.9020    8.9890 N   0  0  0  0  0  0  0  0  0  0  0  0
   -4.5233   32.8249    7.8958 C   0  0  0  0  0  0  0  0  0  0  0  0
   -4.8723   34.2664    8.2479 C   0  0  0  0  0  0  0  0  0  0  0  0
   -3.7208   31.1272    9.4544 C   0  0  0  0  0  0  0  0  0  0  0  0
   -2.5336   31.9599    9.9609 C   0  0  0  0  0  0  0  0  0  0  0  0
   -1.2175   31.6016    9.2625 C   0  0  0  0  0  0  0  0  0  0  0  0
   -1.3708   30.5010    8.2081 C   0  0  0  0  0  0  0  0  0  0  0  0
   -0.5886   29.2278    8.5381 C   0  0  0  0  0  0  0  0  0  0  0  0
    0.6477   29.3445    6.3446 C   0  0  0  0  0  0  0  0  0  0  0  0
    0.7793   29.2251    7.8547 C   0  0  0  0  0  0  0  0  0  0  0  0
 27 28  1  0  0  0
 28 26  1  0  0  0
 26 25  1  0  0  0
 25 24  1  0  0  0
 24 23  1  0  0  0
 23 22  1  0  0  0
 22 19  1  0  0  0
 19 20  1  0  0  0
 20 21  1  0  0  0
 19 18  1  0  0  0
 18 17  1  0  0  0
 17 16  1  0  0  0
 16  1  1  0  0  0
  1  2  1  0  0  0
  1  4  1  0  0  0
  4  5  1  0  0  0
  5  6  2  0  0  0
  6  7  1  0  0  0
  7 10  1  0  0  0
 10 12  1  0  0  0
 12 13  1  0  0  0
 12 14  2  0  0  0
 12 15  2  0  0  0
  7  8  2  0  0  0
  8  9  1  0  0  0
  9  4  2  0  0  0
  2  3  1  0  0  0
 10 11  1  0  0  0
M  END
> <minimizedAffinity>
-8.25420

$$$$
OCNT-2328395


 18 18  0  0  0  0  0  0  0  0999 V2000
   -0.7588   27.7601    6.4401 N   0  0  0  0  0  0  0  0  0  0  0  0
   -1.2884   27.8777    7.6170 C   0  0  0  0  0  0  0  0  0  0  0  0
   -1.5009   29.1938    8.2562 C   0  0  0  0  0  0  0  0  0  0  0  0
   -2.7799   29.7477    8.4302 C   0  0  0  0  0  0  0  0  0  0  0  0
   -4.2491   28.9332    8.0135 Cl  0  0  0  0  0  0  0  0  0  0  0  0
   -2.9269   31.0065    9.0307 C   0  0  0  0  0  0  0  0  0  0  0  0
   -1.8126   31.7174    9.4687 C   0  0  0  0  0  0  0  0  0  0  0  0
   -0.5434   31.1679    9.3146 C   0  0  0  0  0  0  0  0  0  0  0  0
   -0.3837   29.9122    8.7145 C   0  0  0  0  0  0  0  0  0  0  0  0
    1.2408   29.3362    8.5562 Cl  0  0  0  0  0  0  0  0  0  0  0  0
   -0.5788   26.4782    5.9959 N   0  0  0  0  0  0  0  0  0  0  0  0
   -1.0278   25.7859    6.5840 H   0  0  0  0  0  0  0  0  0  0  0  0
    0.7919   25.7554    4.1993 N   0  0  0  0  0  0  0  0  0  0  0  0
   -0.3512   26.0669    4.7051 C   0  0  0  0  0  0  0  0  0  0  0  0
   -1.4859   25.9851    3.9650 N   0  0  0  0  0  0  0  0  0  0  0  0
    0.6801   25.4506    3.2339 H   0  0  0  0  0  0  0  0  0  0  0  0
   -1.3307   25.8633    2.9725 H   0  0  0  0  0  0  0  0  0  0  0  0
   -2.1469   26.7350    4.1268 H   0  0  0  0  0  0  0  0  0  0  0  0
 13 14  2  0  0  0
 14 15  1  0  0  0
 14 11  1  0  0  0
 11  1  1  0  0  0
  1  2  2  0  0  0
  2  3  1  0  0  0
  3  4  2  0  0  0
  4  5  1  0  0  0
  4  6  1  0  0  0
  6  7  2  0  0  0
  7  8  1  0  0  0
  8  9  2  0  0  0
  9 10  1  0  0  0
  9  3  1  0  0  0
 13 16  1  0  0  0
 15 17  1  0  0  0
 15 18  1  0  0  0
 11 12  1  0  0  0
M  END
> <minimizedAffinity>
-6.66723

$$$$
OCNT-2328398


 14 14  0  0  0  0  0  0  0  0999 V2000
   -1.1412   29.8793    8.7595 C   0  0  0  0  0  0  0  0  0  0  0  0
   -0.8167   31.1241    9.3239 C   0  0  0  0  0  0  0  0  0  0  0  0
   -1.7921   32.1096    9.4963 C   0  0  0  0  0  0  0  0  0  0  0  0
   -3.1039   31.8707    9.1028 C   0  0  0  0  0  0  0  0  0  0  0  0
   -3.4388   30.6464    8.5262 C   0  0  0  0  0  0  0  0  0  0  0  0
   -2.4681   29.6438    8.3392 C   0  0  0  0  0  0  0  0  0  0  0  0
   -2.9504   28.3780    7.7008 C   0  0  0  0  0  0  0  0  0  0  0  0
   -2.4856   27.1894    8.1816 N   0  0  0  0  0  0  0  0  0  0  0  0
   -3.7385   28.3896    6.7608 O   0  0  0  0  0  0  0  0  0  0  0  0
   -1.8655   27.1523    8.9816 H   0  0  0  0  0  0  0  0  0  0  0  0
   -2.8238   26.3332    7.7662 H   0  0  0  0  0  0  0  0  0  0  0  0
   -0.2137   28.8826    8.5741 O   0  0  0  0  0  0  0  0  0  0  0  0
    0.6081   29.3160    6.3766 C   0  0  0  0  0  0  0  0  0  0  0  0
    0.9725   29.2179    7.8487 C   0  0  0  0  0  0  0  0  0  0  0  0
 13 14  1  0  0  0
 14 12  1  0  0  0
 12  1  1  0  0  0
  1  2  2  0  0  0
  2  3  1  0  0  0
  3  4  2  0  0  0
  4  5  1  0  0  0
  5  6  2  0  0  0
  6  7  1  0  0  0
  7  8  1  0  0  0
  7  9  2  0  0  0
  6  1  1  0  0  0
  8 10  1  0  0  0
  8 11  1  0  0  0
M  END
> <minimizedAffinity>
-6.22375

$$$$
OCNT-2328411


 11 11  0  0  0  0  0  0  0  0999 V2000
   -4.3839   32.4617    8.3422 C   0  0  0  0  0  0  0  0  0  0  0  0
   -5.3936   31.5299    9.0059 C   0  0  0  0  0  0  0  0  0  0  0  0
   -3.2986   32.6816    9.2550 O   0  0  0  0  0  0  0  0  0  0  0  0
   -2.1723   32.0939    8.7558 C   0  0  0  0  0  0  0  0  0  0  0  0
   -1.0922   32.1391    9.3226 O   0  0  0  0  0  0  0  0  0  0  0  0
   -2.4357   31.5027    7.5708 N   0  0  0  0  0  0  0  0  0  0  0  0
   -1.4410   30.8731    6.7411 C   0  0  0  0  0  0  0  0  0  0  0  0
   -3.7118   31.7527    7.1885 C   0  0  0  0  0  0  0  0  0  0  0  0
   -4.2305   31.4664    6.1204 O   0  0  0  0  0  0  0  0  0  0  0  0
   -4.7499   34.9415    8.8919 C   0  0  0  0  0  0  0  0  0  0  0  0
   -5.0239   33.7910    7.9288 C   0  0  0  0  0  0  0  0  0  0  0  0
 10 11  1  0  0  0
 11  1  1  0  0  0
  1  2  1  0  0  0
  1  3  1  0  0  0
  3  4  1  0  0  0
  4  5  2  0  0  0
  4  6  1  0  0  0
  6  7  1  0  0  0
  6  8  1  0  0  0
  8  9  2  0  0  0
  8  1  1  0  0  0
M  END
> <minimizedAffinity>
-5.39696

$$$$
OCNT-2328418


 30 31  0  0  0  0  0  0  0  0999 V2000
   -3.4036   27.6581    5.8445 C   0  0  0  0  0  0  0  0  0  0  0  0
   -2.0816   27.6405    6.3315 C   0  0  0  0  0  0  0  0  0  0  0  0
   -1.1561   26.7815    5.7268 C   0  0  0  0  0  0  0  0  0  0  0  0
   -1.5314   25.9399    4.6694 C   0  0  0  0  0  0  0  0  0  0  0  0
   -2.8383   25.9474    4.1956 C   0  0  0  0  0  0  0  0  0  0  0  0
   -3.7682   26.7985    4.7914 C   0  0  0  0  0  0  0  0  0  0  0  0
   -5.1943   29.1887    5.6249 O   0  0  0  0  0  0  0  0  0  0  0  0
   -4.4925   28.5296    6.3882 C   0  0  0  0  0  0  0  0  0  0  0  0
   -4.6593   28.5535    7.7519 N   0  0  0  0  0  0  0  0  0  0  0  0
   -4.1157   27.9019    8.3058 H   0  0  0  0  0  0  0  0  0  0  0  0
   -5.7235   29.2928    8.4125 C   0  0  0  0  0  0  0  0  0  0  0  0
   -5.2707   30.6408    9.0353 C   0  0  0  0  0  0  0  0  0  0  0  0
   -5.3890   31.7921    8.0207 C   0  0  0  0  0  0  0  0  0  0  0  0
   -4.9577   33.1248    8.6296 C   0  0  0  0  0  0  0  0  0  0  0  0
   -3.7224   32.9881    9.5188 C   0  0  0  0  0  0  0  0  0  0  0  0
   -3.0355   31.6372    9.3497 C   0  0  0  0  0  0  0  0  0  0  0  0
   -3.9425   30.5433    9.6645 N   0  0  0  0  0  0  0  0  0  0  0  0
   -3.5012   29.6461    9.4158 H   0  0  0  0  0  0  0  0  0  0  0  0
   -1.7742   28.4868    7.3638 O   0  0  0  0  0  0  0  0  0  0  0  0
   -0.5723   28.2761    8.1233 C   0  0  0  0  0  0  0  0  0  0  0  0
    0.4285   29.4147    7.9669 C   0  0  0  0  0  0  0  0  0  0  0  0
    0.5854   29.7743    6.6741 F   0  0  0  0  0  0  0  0  0  0  0  0
    0.0474   30.5098    8.6614 F   0  0  0  0  0  0  0  0  0  0  0  0
    1.6446   29.0410    8.4324 F   0  0  0  0  0  0  0  0  0  0  0  0
   -3.3306   25.1831    3.1764 O   0  0  0  0  0  0  0  0  0  0  0  0
   -4.7123   24.8139    3.2392 C   0  0  0  0  0  0  0  0  0  0  0  0
   -5.4337   25.2323    1.9689 C   0  0  0  0  0  0  0  0  0  0  0  0
   -5.8820   26.5049    2.0416 F   0  0  0  0  0  0  0  0  0  0  0  0
   -6.5114   24.4344    1.7649 F   0  0  0  0  0  0  0  0  0  0  0  0
   -4.6428   25.1256    0.8809 F   0  0  0  0  0  0  0  0  0  0  0  0
  7  8  2  0  0  0
  8  9  1  0  0  0
  9 11  1  0  0  0
 11 12  1  0  0  0
 12 13  1  0  0  0
 13 14  1  0  0  0
 14 15  1  0  0  0
 15 16  1  0  0  0
 16 17  1  0  0  0
  8  1  1  0  0  0
  1  2  2  0  0  0
  2 19  1  0  0  0
 19 20  1  0  0  0
 20 21  1  0  0  0
 21 22  1  0  0  0
 21 23  1  0  0  0
 21 24  1  0  0  0
  2  3  1  0  0  0
  3  4  2  0  0  0
  4  5  1  0  0  0
  5 25  1  0  0  0
 25 26  1  0  0  0
 26 27  1  0  0  0
 27 28  1  0  0  0
 27 29  1  0  0  0
 27 30  1  0  0  0
  5  6  2  0  0  0
 17 12  1  0  0  0
  6  1  1  0  0  0
  9 10  1  0  0  0
 17 18  1  0  0  0
M  END
> <minimizedAffinity>
-9.01783

$$$$
OCNT-2328420


 15 16  0  0  0  0  0  0  0  0999 V2000
    0.7702   29.2876    8.1769 C   0  0  0  0  0  0  0  0  0  0  0  0
   -0.5485   29.8874    8.5886 C   0  0  0  0  0  0  0  0  0  0  0  0
   -0.5380   31.1516    9.2004 C   0  0  0  0  0  0  0  0  0  0  0  0
   -1.7222   31.7639    9.5940 C   0  0  0  0  0  0  0  0  0  0  0  0
   -2.9352   31.1215    9.3774 C   0  0  0  0  0  0  0  0  0  0  0  0
   -2.9884   29.8498    8.7735 C   0  0  0  0  0  0  0  0  0  0  0  0
   -1.7793   29.2151    8.3854 C   0  0  0  0  0  0  0  0  0  0  0  0
   -1.8162   27.8611    7.7194 C   0  0  0  0  0  0  0  0  0  0  0  0
   -4.3559   29.2302    8.5512 C   0  0  0  0  0  0  0  0  0  0  0  0
   -4.7551   29.5558    7.1510 C   0  0  0  0  0  0  0  0  0  0  0  0
   -4.3807   30.6164    6.3495 C   0  0  0  0  0  0  0  0  0  0  0  0
   -5.0395   30.4293    5.1669 N   0  0  0  0  0  0  0  0  0  0  0  0
   -5.7945   29.2994    5.2897 C   0  0  0  0  0  0  0  0  0  0  0  0
   -5.6529   28.7532    6.4745 N   0  0  0  0  0  0  0  0  0  0  0  0
   -4.9814   31.0165    4.3467 H   0  0  0  0  0  0  0  0  0  0  0  0
  1  2  1  0  0  0
  2  3  1  0  0  0
  3  4  2  0  0  0
  4  5  1  0  0  0
  5  6  2  0  0  0
  6  9  1  0  0  0
  9 10  1  0  0  0
 10 11  2  0  0  0
 11 12  1  0  0  0
 12 13  1  0  0  0
 13 14  2  0  0  0
  6  7  1  0  0  0
  7  8  1  0  0  0
  7  2  2  0  0  0
 14 10  1  0  0  0
 12 15  1  0  0  0
M  END
> <minimizedAffinity>
-6.97068

$$$$
OCNT-2328421


 35 39  0  0  0  0  0  0  0  0999 V2000
   -3.5317   28.9487    7.0237 N   0  0  0  0  0  0  0  0  0  0  0  0
   -4.1898   28.1972    6.1145 N   0  0  0  0  0  0  0  0  0  0  0  0
   -3.2666   27.3276    5.6680 C   0  0  0  0  0  0  0  0  0  0  0  0
   -1.9871   27.5912    6.2393 C   0  0  0  0  0  0  0  0  0  0  0  0
   -0.6748   27.1097    6.1473 C   0  0  0  0  0  0  0  0  0  0  0  0
   -0.2613   26.0885    5.3049 N   0  0  0  0  0  0  0  0  0  0  0  0
    0.2805   27.6837    6.9082 N   0  0  0  0  0  0  0  0  0  0  0  0
   -0.0653   28.7009    7.7191 C   0  0  0  0  0  0  0  0  0  0  0  0
   -1.2779   29.2545    7.8776 N   0  0  0  0  0  0  0  0  0  0  0  0
   -2.1995   28.6478    7.1091 C   0  0  0  0  0  0  0  0  0  0  0  0
   -0.7761   26.0087    4.4374 H   0  0  0  0  0  0  0  0  0  0  0  0
    0.7495   26.0794    5.2199 H   0  0  0  0  0  0  0  0  0  0  0  0
   -4.0461   33.0715    8.9692 C   0  0  0  0  0  0  0  0  0  0  0  0
   -2.8668   32.8543    9.2359 O   0  0  0  0  0  0  0  0  0  0  0  0
   -4.7303   32.4015    7.9633 N   0  0  0  0  0  0  0  0  0  0  0  0
   -6.1808   32.2035    7.9394 C   0  0  0  0  0  0  0  0  0  0  0  0
   -6.5268   30.8253    8.5090 C   0  0  0  0  0  0  0  0  0  0  0  0
   -5.7716   29.7095    7.7773 C   0  0  0  0  0  0  0  0  0  0  0  0
   -4.2564   29.9887    7.7390 C   0  0  0  0  0  0  0  0  0  0  0  0
   -3.9856   31.3991    7.1908 C   0  0  0  0  0  0  0  0  0  0  0  0
   -4.8107   35.3797    9.2877 C   0  0  0  0  0  0  0  0  0  0  0  0
   -4.8024   34.1108    9.7161 C   0  0  0  0  0  0  0  0  0  0  0  0
   -3.6339   26.3006    4.6974 C   0  0  0  0  0  0  0  0  0  0  0  0
   -4.5164   25.2693    5.0440 C   0  0  0  0  0  0  0  0  0  0  0  0
   -4.8464   24.2810    4.1129 C   0  0  0  0  0  0  0  0  0  0  0  0
   -4.3142   24.3296    2.8244 C   0  0  0  0  0  0  0  0  0  0  0  0
   -3.4302   25.3510    2.4698 C   0  0  0  0  0  0  0  0  0  0  0  0
   -3.1023   26.3402    3.4010 C   0  0  0  0  0  0  0  0  0  0  0  0
   -4.6505   23.2963    1.9792 O   0  0  0  0  0  0  0  0  0  0  0  0
   -5.6829   23.5077    1.0942 C   0  0  0  0  0  0  0  0  0  0  0  0
   -5.9262   24.7534    0.5102 C   0  0  0  0  0  0  0  0  0  0  0  0
   -7.0140   24.9133   -0.3498 C   0  0  0  0  0  0  0  0  0  0  0  0
   -7.8628   23.8365   -0.6107 C   0  0  0  0  0  0  0  0  0  0  0  0
   -7.6308   22.5994   -0.0071 C   0  0  0  0  0  0  0  0  0  0  0  0
   -6.5441   22.4365    0.8526 C   0  0  0  0  0  0  0  0  0  0  0  0
 21 22  2  0  0  0
 22 13  1  0  0  0
 13 14  2  0  0  0
 13 15  1  0  0  0
 15 16  1  0  0  0
 16 17  1  0  0  0
 17 18  1  0  0  0
 18 19  1  0  0  0
 19  1  1  0  0  0
  1  2  1  0  0  0
  2  3  2  0  0  0
  3 23  1  0  0  0
 23 24  1  0  0  0
 24 25  2  0  0  0
 25 26  1  0  0  0
 26 29  1  0  0  0
 29 30  1  0  0  0
 30 31  2  0  0  0
 31 32  1  0  0  0
 32 33  2  0  0  0
 33 34  1  0  0  0
 34 35  2  0  0  0
 26 27  2  0  0  0
 27 28  1  0  0  0
  3  4  1  0  0  0
  4  5  2  0  0  0
  5  6  1  0  0  0
  5  7  1  0  0  0
  7  8  2  0  0  0
  8  9  1  0  0  0
  9 10  2  0  0  0
 19 20  1  0  0  0
 20 15  1  0  0  0
 10  1  1  0  0  0
 28 23  2  0  0  0
 10  4  1  0  0  0
 35 30  1  0  0  0
  6 11  1  0  0  0
  6 12  1  0  0  0
M  END
> <minimizedAffinity>
-11.17641

$$$$
OCNT-2328426


 24 26  0  0  0  0  0  0  0  0999 V2000
   -3.5560   26.7642    2.8147 O   0  0  0  0  0  0  0  0  0  0  0  0
   -4.5524   26.2182    3.7033 C   0  0  0  0  0  0  0  0  0  0  0  0
   -3.3707   26.0825    2.1476 H   0  0  0  0  0  0  0  0  0  0  0  0
   -5.3935   27.3708    4.2838 C   0  0  0  0  0  0  0  0  0  0  0  0
   -6.0133   27.2420    5.5419 C   0  0  0  0  0  0  0  0  0  0  0  0
   -6.7703   28.2840    6.0831 C   0  0  0  0  0  0  0  0  0  0  0  0
   -6.9190   29.4763    5.3802 C   0  0  0  0  0  0  0  0  0  0  0  0
   -6.3102   29.6281    4.1375 C   0  0  0  0  0  0  0  0  0  0  0  0
   -5.5535   28.5862    3.5952 C   0  0  0  0  0  0  0  0  0  0  0  0
   -5.4301   25.2696    2.8650 C   0  0  0  0  0  0  0  0  0  0  0  0
   -6.1706   24.2109    3.4169 C   0  0  0  0  0  0  0  0  0  0  0  0
   -6.9605   23.3862    2.6094 C   0  0  0  0  0  0  0  0  0  0  0  0
   -7.0351   23.6097    1.2374 C   0  0  0  0  0  0  0  0  0  0  0  0
   -6.3262   24.6629    0.6694 C   0  0  0  0  0  0  0  0  0  0  0  0
   -5.5368   25.4858    1.4748 C   0  0  0  0  0  0  0  0  0  0  0  0
   -3.7626   25.5618    4.8722 C   0  0  0  0  0  0  0  0  0  0  0  0
   -2.3121   26.0582    5.0239 C   0  0  0  0  0  0  0  0  0  0  0  0
   -2.0453   26.7051    6.3925 C   0  0  0  0  0  0  0  0  0  0  0  0
   -1.9870   28.1712    6.3667 N   0  0  0  0  0  0  0  0  0  0  0  0
   -3.1528   28.7701    7.0176 C   0  0  0  0  0  0  0  0  0  0  0  0
   -3.2185   30.2717    6.7144 C   0  0  0  0  0  0  0  0  0  0  0  0
   -1.8453   30.9461    6.6988 C   0  0  0  0  0  0  0  0  0  0  0  0
   -0.8269   30.1237    7.4728 C   0  0  0  0  0  0  0  0  0  0  0  0
   -0.7253   28.6945    6.9207 C   0  0  0  0  0  0  0  0  0  0  0  0
  1  2  1  0  0  0
  2 16  1  0  0  0
 16 17  1  0  0  0
 17 18  1  0  0  0
 18 19  1  0  0  0
 19 20  1  0  0  0
 20 21  1  0  0  0
 21 22  1  0  0  0
 22 23  1  0  0  0
 23 24  1  0  0  0
  2  4  1  0  0  0
  4  5  2  0  0  0
  5  6  1  0  0  0
  6  7  2  0  0  0
  7  8  1  0  0  0
  8  9  2  0  0  0
  2 10  1  0  0  0
 10 11  2  0  0  0
 11 12  1  0  0  0
 12 13  2  0  0  0
 13 14  1  0  0  0
 14 15  2  0  0  0
 24 19  1  0  0  0
  9  4  1  0  0  0
 15 10  1  0  0  0
  1  3  1  0  0  0
M  END
> <minimizedAffinity>
-8.60081

$$$$
OCNT-2328429


 21 23  0  0  0  0  0  0  0  0999 V2000
   -4.6297   24.0552    4.0343 C   0  0  0  0  0  0  0  0  0  0  0  0
   -5.8280   23.8237    3.4795 C   0  0  0  0  0  0  0  0  0  0  0  0
   -7.0130   23.2544    4.3241 C   0  0  0  0  0  0  0  0  0  0  0  0
   -7.5134   21.9752    4.0360 C   0  0  0  0  0  0  0  0  0  0  0  0
   -8.6257   21.5001    4.7380 C   0  0  0  0  0  0  0  0  0  0  0  0
   -9.2322   22.2934    5.7147 C   0  0  0  0  0  0  0  0  0  0  0  0
   -8.7323   23.5652    5.9950 C   0  0  0  0  0  0  0  0  0  0  0  0
   -7.6266   24.0500    5.2965 C   0  0  0  0  0  0  0  0  0  0  0  0
   -6.8348   21.0306    2.9820 C   0  0  0  0  0  0  0  0  0  0  0  0
   -6.3892   21.4090    1.7746 C   0  0  0  0  0  0  0  0  0  0  0  0
   -6.4730   22.8642    1.1954 C   0  0  0  0  0  0  0  0  0  0  0  0
   -6.1584   23.9937    1.9657 C   0  0  0  0  0  0  0  0  0  0  0  0
   -6.2460   25.2732    1.4072 C   0  0  0  0  0  0  0  0  0  0  0  0
   -6.6159   25.4265    0.0712 C   0  0  0  0  0  0  0  0  0  0  0  0
   -6.9155   24.3054   -0.7024 C   0  0  0  0  0  0  0  0  0  0  0  0
   -6.8476   23.0278   -0.1420 C   0  0  0  0  0  0  0  0  0  0  0  0
   -3.3825   24.5240    3.3342 C   0  0  0  0  0  0  0  0  0  0  0  0
   -3.0018   25.9753    3.6867 C   0  0  0  0  0  0  0  0  0  0  0  0
   -3.5786   27.3744    5.5616 C   0  0  0  0  0  0  0  0  0  0  0  0
   -2.7702   26.2346    5.1223 N   0  0  0  0  0  0  0  0  0  0  0  0
   -1.3578   26.4879    5.4122 C   0  0  0  0  0  0  0  0  0  0  0  0
 19 20  1  0  0  0
 20 21  1  0  0  0
 20 18  1  0  0  0
 18 17  1  0  0  0
 17  1  1  0  0  0
  1  2  2  0  0  0
  2  3  1  0  0  0
  3  4  1  0  0  0
  4  5  2  0  0  0
  5  6  1  0  0  0
  6  7  2  0  0  0
  7  8  1  0  0  0
  4  9  1  0  0  0
  9 10  2  0  0  0
 10 11  1  0  0  0
 11 12  1  0  0  0
 12 13  2  0  0  0
 13 14  1  0  0  0
 14 15  2  0  0  0
 15 16  1  0  0  0
 12  2  1  0  0  0
  8  3  2  0  0  0
 16 11  2  0  0  0
M  END
> <minimizedAffinity>
-8.43651

$$$$
OCNT-2328441


 19 20  0  0  0  0  0  0  0  0999 V2000
   -9.2039   20.7947    4.4136 C   0  0  0  0  0  0  0  0  0  0  0  0
   -8.1388   21.7814    4.0076 C   0  0  0  0  0  0  0  0  0  0  0  0
   -7.9476   22.0242    2.6329 C   0  0  0  0  0  0  0  0  0  0  0  0
   -6.9846   22.9259    2.1603 C   0  0  0  0  0  0  0  0  0  0  0  0
   -6.2082   23.5921    3.1235 C   0  0  0  0  0  0  0  0  0  0  0  0
   -6.3754   23.3818    4.5043 C   0  0  0  0  0  0  0  0  0  0  0  0
   -5.4891   24.1434    5.4569 C   0  0  0  0  0  0  0  0  0  0  0  0
   -7.3528   22.4692    4.9598 C   0  0  0  0  0  0  0  0  0  0  0  0
   -6.7624   23.2010    0.6624 C   0  0  0  0  0  0  0  0  0  0  0  0
   -8.0680   23.2828   -0.1607 C   0  0  0  0  0  0  0  0  0  0  0  0
   -6.0276   24.5475    0.4849 C   0  0  0  0  0  0  0  0  0  0  0  0
   -5.9079   22.0709    0.0481 C   0  0  0  0  0  0  0  0  0  0  0  0
   -7.5185   22.2055    6.4475 C   0  0  0  0  0  0  0  0  0  0  0  0
   -8.7189   22.9080    7.0437 C   0  0  0  0  0  0  0  0  0  0  0  0
   -9.4073   22.3650    8.0175 N   0  0  0  0  0  0  0  0  0  0  0  0
  -10.4798   23.3612    8.3017 C   0  0  0  0  0  0  0  0  0  0  0  0
  -10.4718   24.3503    7.1327 C   0  0  0  0  0  0  0  0  0  0  0  0
   -9.1466   24.1394    6.6014 N   0  0  0  0  0  0  0  0  0  0  0  0
   -9.0067   24.3274    5.6129 H   0  0  0  0  0  0  0  0  0  0  0  0
  1  2  1  0  0  0
  2  3  2  0  0  0
  3  4  1  0  0  0
  4  9  1  0  0  0
  9 10  1  0  0  0
  9 11  1  0  0  0
  9 12  1  0  0  0
  4  5  2  0  0  0
  5  6  1  0  0  0
  6  7  1  0  0  0
  6  8  2  0  0  0
  8 13  1  0  0  0
 13 14  1  0  0  0
 14 15  2  0  0  0
 15 16  1  0  0  0
 16 17  1  0  0  0
 17 18  1  0  0  0
  8  2  1  0  0  0
 18 14  1  0  0  0
 18 19  1  0  0  0
M  END
> <minimizedAffinity>
-7.22578

$$$$
OCNT-2328446


 16 16  0  0  0  0  0  0  0  0999 V2000
   -1.4458   27.6105    7.7303 C   0  0  0  0  0  0  0  0  0  0  0  0
   -2.5304   26.8097    8.2033 O   0  0  0  0  0  0  0  0  0  0  0  0
   -2.6580   26.1357    7.5054 H   0  0  0  0  0  0  0  0  0  0  0  0
   -1.5179   29.0086    8.3065 C   0  0  0  0  0  0  0  0  0  0  0  0
   -2.7948   29.5503    8.5636 C   0  0  0  0  0  0  0  0  0  0  0  0
   -2.9474   30.8283    9.1058 C   0  0  0  0  0  0  0  0  0  0  0  0
   -1.8266   31.5941    9.4038 C   0  0  0  0  0  0  0  0  0  0  0  0
   -0.5549   31.0800    9.1586 C   0  0  0  0  0  0  0  0  0  0  0  0
   -0.3961   29.7982    8.6147 C   0  0  0  0  0  0  0  0  0  0  0  0
    1.2293   29.2639    8.3651 Cl  0  0  0  0  0  0  0  0  0  0  0  0
   -1.3861   27.5772    6.1817 C   0  0  0  0  0  0  0  0  0  0  0  0
   -0.1069   26.9783    5.7489 N   0  0  0  0  0  0  0  0  0  0  0  0
    0.5417   27.7187    5.4765 H   0  0  0  0  0  0  0  0  0  0  0  0
    0.6983   26.4503    3.5267 C   0  0  0  0  0  0  0  0  0  0  0  0
   -0.2676   26.0317    4.6370 C   0  0  0  0  0  0  0  0  0  0  0  0
   -1.6978   25.9993    4.0954 C   0  0  0  0  0  0  0  0  0  0  0  0
 14 15  1  0  0  0
 15 16  1  0  0  0
 15 12  1  0  0  0
 12 11  1  0  0  0
 11  1  1  0  0  0
  1  2  1  0  0  0
  1  4  1  0  0  0
  4  5  2  0  0  0
  5  6  1  0  0  0
  6  7  2  0  0  0
  7  8  1  0  0  0
  8  9  2  0  0  0
  9 10  1  0  0  0
  9  4  1  0  0  0
 12 13  1  0  0  0
  2  3  1  0  0  0
M  END
> <minimizedAffinity>
-7.10666

$$$$
OCNT-2328447


 24 27  0  0  0  0  0  0  0  0999 V2000
   -5.2825   26.8979    4.6336 C   0  0  0  0  0  0  0  0  0  0  0  0
   -3.9845   26.9381    5.1633 C   0  0  0  0  0  0  0  0  0  0  0  0
   -3.6160   27.9000    6.1109 C   0  0  0  0  0  0  0  0  0  0  0  0
   -4.5372   28.8604    6.5556 C   0  0  0  0  0  0  0  0  0  0  0  0
   -5.8407   28.8168    6.0334 C   0  0  0  0  0  0  0  0  0  0  0  0
   -6.2041   27.8531    5.0866 C   0  0  0  0  0  0  0  0  0  0  0  0
   -6.4017   23.9405    1.7317 C   0  0  0  0  0  0  0  0  0  0  0  0
   -6.5086   23.6597    3.0914 C   0  0  0  0  0  0  0  0  0  0  0  0
   -6.1435   24.6231    4.0357 C   0  0  0  0  0  0  0  0  0  0  0  0
   -5.6666   25.8836    3.6383 C   0  0  0  0  0  0  0  0  0  0  0  0
   -5.5673   26.1460    2.2616 C   0  0  0  0  0  0  0  0  0  0  0  0
   -5.9309   25.1831    1.3159 C   0  0  0  0  0  0  0  0  0  0  0  0
   -4.1846   29.9168    7.6018 C   0  0  0  0  0  0  0  0  0  0  0  0
   -2.7291   29.9117    8.0708 C   0  0  0  0  0  0  0  0  0  0  0  0
   -2.1816   31.0999    8.5914 C   0  0  0  0  0  0  0  0  0  0  0  0
   -0.8525   31.1527    9.0153 C   0  0  0  0  0  0  0  0  0  0  0  0
   -0.0461   30.0221    8.9219 C   0  0  0  0  0  0  0  0  0  0  0  0
   -0.5659   28.8402    8.4008 C   0  0  0  0  0  0  0  0  0  0  0  0
   -1.8950   28.7844    7.9742 C   0  0  0  0  0  0  0  0  0  0  0  0
   -5.1436   29.9340    8.7192 N   0  0  0  0  0  0  0  0  0  0  0  0
   -5.3875   28.9610    9.6536 C   0  0  0  0  0  0  0  0  0  0  0  0
   -6.3826   29.4712   10.4537 C   0  0  0  0  0  0  0  0  0  0  0  0
   -6.7463   30.7248   10.0393 N   0  0  0  0  0  0  0  0  0  0  0  0
   -5.9860   30.9794    8.9988 C   0  0  0  0  0  0  0  0  0  0  0  0
  7  8  2  0  0  0
  8  9  1  0  0  0
  9 10  2  0  0  0
 10  1  1  0  0  0
  1  2  1  0  0  0
  2  3  2  0  0  0
  3  4  1  0  0  0
  4 13  1  0  0  0
 13 14  1  0  0  0
 14 15  2  0  0  0
 15 16  1  0  0  0
 16 17  2  0  0  0
 17 18  1  0  0  0
 18 19  2  0  0  0
 13 20  1  0  0  0
 20 21  1  0  0  0
 21 22  2  0  0  0
 22 23  1  0  0  0
 23 24  2  0  0  0
  4  5  2  0  0  0
  5  6  1  0  0  0
 10 11  1  0  0  0
 11 12  2  0  0  0
 12  7  1  0  0  0
  6  1  2  0  0  0
 19 14  1  0  0  0
 24 20  1  0  0  0
M  END
> <minimizedAffinity>
-9.50533

$$$$
OCNT-2328450


 29 32  0  0  0  0  0  0  0  0999 V2000
   -4.4307   28.4922    6.7969 C   0  0  0  0  0  0  0  0  0  0  0  0
   -4.1683   28.0272    5.5645 C   0  0  0  0  0  0  0  0  0  0  0  0
   -4.7363   26.7705    5.0666 C   0  0  0  0  0  0  0  0  0  0  0  0
   -3.9812   25.8837    4.3566 N   0  0  0  0  0  0  0  0  0  0  0  0
   -2.5331   26.1301    4.1562 C   0  0  0  0  0  0  0  0  0  0  0  0
   -4.5438   24.7422    3.8380 C   0  0  0  0  0  0  0  0  0  0  0  0
   -5.9103   24.4675    4.0728 C   0  0  0  0  0  0  0  0  0  0  0  0
   -6.6737   25.3635    4.8143 C   0  0  0  0  0  0  0  0  0  0  0  0
   -6.0884   26.5170    5.3039 C   0  0  0  0  0  0  0  0  0  0  0  0
   -6.5001   23.2967    3.5534 C   0  0  0  0  0  0  0  0  0  0  0  0
   -5.7894   22.3545    2.7918 C   0  0  0  0  0  0  0  0  0  0  0  0
   -4.4421   22.6584    2.5580 C   0  0  0  0  0  0  0  0  0  0  0  0
   -3.8293   23.8161    3.0657 C   0  0  0  0  0  0  0  0  0  0  0  0
   -6.3945   21.2166    2.2664 N   0  0  0  0  0  0  0  0  0  0  0  0
   -6.0721   20.7709    0.9089 C   0  0  0  0  0  0  0  0  0  0  0  0
   -7.6841   20.7585    2.7880 C   0  0  0  0  0  0  0  0  0  0  0  0
   -1.3291   31.8841    8.8198 C   0  0  0  0  0  0  0  0  0  0  0  0
   -2.5351   31.2442    8.2172 C   0  0  0  0  0  0  0  0  0  0  0  0
   -2.6249   29.9674    7.7017 C   0  0  0  0  0  0  0  0  0  0  0  0
   -3.9689   29.7267    7.3485 C   0  0  0  0  0  0  0  0  0  0  0  0
   -4.6797   30.8936    7.5874 C   0  0  0  0  0  0  0  0  0  0  0  0
   -6.0851   31.2493    7.2211 C   0  0  0  0  0  0  0  0  0  0  0  0
   -3.8030   31.8160    8.1774 N   0  0  0  0  0  0  0  0  0  0  0  0
   -4.1522   33.1116    8.6593 C   0  0  0  0  0  0  0  0  0  0  0  0
   -4.2985   34.1812    7.7682 C   0  0  0  0  0  0  0  0  0  0  0  0
   -4.6400   35.4470    8.2488 C   0  0  0  0  0  0  0  0  0  0  0  0
   -4.8317   35.6496    9.6148 C   0  0  0  0  0  0  0  0  0  0  0  0
   -4.6837   34.5874   10.5054 C   0  0  0  0  0  0  0  0  0  0  0  0
   -4.3457   33.3182   10.0316 C   0  0  0  0  0  0  0  0  0  0  0  0
 17 18  1  0  0  0
 18 19  2  0  0  0
 19 20  1  0  0  0
 20  1  1  0  0  0
  1  2  2  0  0  0
  2  3  1  0  0  0
  3  4  2  0  0  0
  4  5  1  0  0  0
  4  6  1  0  0  0
  6  7  1  0  0  0
  7  8  1  0  0  0
  8  9  2  0  0  0
  7 10  2  0  0  0
 10 11  1  0  0  0
 11 14  1  0  0  0
 14 15  1  0  0  0
 14 16  1  0  0  0
 11 12  2  0  0  0
 12 13  1  0  0  0
 20 21  2  0  0  0
 21 22  1  0  0  0
 21 23  1  0  0  0
 23 24  1  0  0  0
 24 25  2  0  0  0
 25 26  1  0  0  0
 26 27  2  0  0  0
 27 28  1  0  0  0
 28 29  2  0  0  0
 23 18  1  0  0  0
 29 24  1  0  0  0
  9  3  1  0  0  0
 13  6  2  0  0  0
M  CHG 1   4   1
M  END
> <minimizedAffinity>
-6.90137

$$$$
OCNT-2328456


 17 17  0  0  0  0  0  0  0  0999 V2000
   -4.3976   32.3825    8.6477 C   0  0  0  0  0  0  0  0  0  0  0  0
   -3.0589   31.9785    8.7237 C   0  0  0  0  0  0  0  0  0  0  0  0
   -2.7528   30.6126    8.8309 C   0  0  0  0  0  0  0  0  0  0  0  0
   -3.7650   29.6444    8.8553 C   0  0  0  0  0  0  0  0  0  0  0  0
   -5.0993   30.0620    8.7662 C   0  0  0  0  0  0  0  0  0  0  0  0
   -5.4201   31.4224    8.6596 C   0  0  0  0  0  0  0  0  0  0  0  0
   -5.2658   34.2367    7.3126 N   0  0  0  0  0  0  0  0  0  0  0  0
   -4.7823   33.8124    8.5170 C   0  0  0  0  0  0  0  0  0  0  0  0
   -4.6457   34.5892    9.4521 O   0  0  0  0  0  0  0  0  0  0  0  0
   -5.4253   35.2341    7.2267 H   0  0  0  0  0  0  0  0  0  0  0  0
   -5.1734   33.7154    6.4528 H   0  0  0  0  0  0  0  0  0  0  0  0
   -1.3467   30.1952    8.9180 N   0  0  0  0  0  0  0  0  0  0  0  0
   -1.0718   29.0334    8.5939 O   0  0  0  0  0  0  0  0  0  0  0  0
   -0.5268   31.0333    9.3171 O   0  0  0  0  0  0  0  0  0  0  0  0
   -6.1752   29.0617    8.7878 N   0  0  0  0  0  0  0  0  0  0  0  0
   -6.6684   28.7312    7.7014 O   0  0  0  0  0  0  0  0  0  0  0  0
   -6.5168   28.6075    9.8868 O   0  0  0  0  0  0  0  0  0  0  0  0
  7  8  1  0  0  0
  8  9  2  0  0  0
  8  1  1  0  0  0
  1  2  2  0  0  0
  2  3  1  0  0  0
  3 12  1  0  0  0
 12 13  2  0  0  0
 12 14  1  0  0  0
  3  4  2  0  0  0
  4  5  1  0  0  0
  5 15  1  0  0  0
 15 16  2  0  0  0
 15 17  1  0  0  0
  5  6  2  0  0  0
  6  1  1  0  0  0
  7 10  1  0  0  0
  7 11  1  0  0  0
M  CHG 1  12   1
M  CHG 1  14  -1
M  CHG 1  15   1
M  CHG 1  17  -1
M  END
> <minimizedAffinity>
-6.38452

$$$$
OCNT-2328469


 28 30  0  0  0  0  0  0  0  0999 V2000
   -4.2061   26.4156    5.0462 C   0  0  0  0  0  0  0  0  0  0  0  0
   -4.6370   27.5529    5.6697 C   0  0  0  0  0  0  0  0  0  0  0  0
   -6.0507   27.7699    5.9885 C   0  0  0  0  0  0  0  0  0  0  0  0
   -6.4922   28.8778    6.6007 C   0  0  0  0  0  0  0  0  0  0  0  0
   -5.5538   29.9780    6.9994 C   0  0  0  0  0  0  0  0  0  0  0  0
   -5.9636   31.0625    7.5950 N   0  0  0  0  0  0  0  0  0  0  0  0
   -7.3833   31.2541    8.0285 C   0  0  0  0  0  0  0  0  0  0  0  0
   -5.0485   32.2085    7.8960 C   0  0  0  0  0  0  0  0  0  0  0  0
   -4.1110   29.7433    6.6652 C   0  0  0  0  0  0  0  0  0  0  0  0
   -3.7091   28.6202    6.0540 C   0  0  0  0  0  0  0  0  0  0  0  0
   -7.0175   23.2905    3.9396 C   0  0  0  0  0  0  0  0  0  0  0  0
   -6.7129   24.3609    3.0794 C   0  0  0  0  0  0  0  0  0  0  0  0
   -5.8067   25.3727    3.4297 C   0  0  0  0  0  0  0  0  0  0  0  0
   -5.1645   25.3452    4.6665 C   0  0  0  0  0  0  0  0  0  0  0  0
   -5.4314   24.2889    5.5363 C   0  0  0  0  0  0  0  0  0  0  0  0
   -6.3402   23.2842    5.1723 C   0  0  0  0  0  0  0  0  0  0  0  0
   -9.0428   21.9562    4.4350 C   0  0  0  0  0  0  0  0  0  0  0  0
   -7.9050   22.2775    3.5770 N   0  0  0  0  0  0  0  0  0  0  0  0
   -7.4863   21.2365    2.6416 C   0  0  0  0  0  0  0  0  0  0  0  0
   -2.7664   26.2219    4.7318 C   0  0  0  0  0  0  0  0  0  0  0  0
   -2.3575   25.9165    3.4347 C   0  0  0  0  0  0  0  0  0  0  0  0
   -0.9956   25.7570    3.1406 C   0  0  0  0  0  0  0  0  0  0  0  0
    0.0070   25.8795    4.1203 C   0  0  0  0  0  0  0  0  0  0  0  0
   -0.4393   26.1938    5.4169 C   0  0  0  0  0  0  0  0  0  0  0  0
   -1.7981   26.3551    5.7256 C   0  0  0  0  0  0  0  0  0  0  0  0
    1.3667   25.7431    3.8114 N   0  0  0  0  0  0  0  0  0  0  0  0
    1.9950   24.4280    3.9461 C   0  0  0  0  0  0  0  0  0  0  0  0
    1.9370   26.5969    2.7673 C   0  0  0  0  0  0  0  0  0  0  0  0
 17 18  1  0  0  0
 18 19  1  0  0  0
 18 11  1  0  0  0
 11 12  1  0  0  0
 12 13  2  0  0  0
 13 14  1  0  0  0
 14  1  1  0  0  0
  1 20  1  0  0  0
 20 21  1  0  0  0
 21 22  2  0  0  0
 22 23  1  0  0  0
 23 26  1  0  0  0
 26 27  1  0  0  0
 26 28  1  0  0  0
 23 24  2  0  0  0
 24 25  1  0  0  0
  1  2  2  0  0  0
  2  3  1  0  0  0
  3  4  2  0  0  0
  4  5  1  0  0  0
  5  6  2  0  0  0
  6  7  1  0  0  0
  6  8  1  0  0  0
  5  9  1  0  0  0
  9 10  2  0  0  0
 14 15  2  0  0  0
 15 16  1  0  0  0
 16 11  2  0  0  0
 25 20  2  0  0  0
 10  2  1  0  0  0
M  CHG 1   6   1
M  END
> <minimizedAffinity>
-7.31033

$$$$
OCNT-2328472


 40 42  0  0  0  0  0  0  0  0999 V2000
   -5.4339   24.3364    3.1797 C   0  0  0  0  0  0  0  0  0  0  0  0
   -4.2990   24.0491    2.8091 O   0  0  0  0  0  0  0  0  0  0  0  0
   -6.8029   22.5495    2.0657 C   0  0  0  0  0  0  0  0  0  0  0  0
   -6.5255   23.3758    3.1453 C   0  0  0  0  0  0  0  0  0  0  0  0
   -7.5002   23.0502    4.1469 C   0  0  0  0  0  0  0  0  0  0  0  0
   -8.3153   22.0787    3.5792 C   0  0  0  0  0  0  0  0  0  0  0  0
   -9.4120   21.5031    4.2141 C   0  0  0  0  0  0  0  0  0  0  0  0
   -9.6905   21.9494    5.5096 C   0  0  0  0  0  0  0  0  0  0  0  0
   -8.8915   22.9119    6.1287 C   0  0  0  0  0  0  0  0  0  0  0  0
   -7.7829   23.4620    5.4682 C   0  0  0  0  0  0  0  0  0  0  0  0
   -7.8915   21.7738    2.3271 O   0  0  0  0  0  0  0  0  0  0  0  0
   -9.1988   23.3783    7.4384 N   0  0  0  0  0  0  0  0  0  0  0  0
   -9.8644   24.1463    7.5243 H   0  0  0  0  0  0  0  0  0  0  0  0
   -9.3244   22.2717    8.7057 S   0  0  0  0  0  0  0  0  0  0  0  0
   -9.4634   23.3375   10.1287 C   0  0  0  0  0  0  0  0  0  0  0  0
   -8.0359   21.6174    8.7828 O   0  0  0  0  0  0  0  0  0  0  0  0
  -10.5465   21.5106    8.5709 O   0  0  0  0  0  0  0  0  0  0  0  0
   -6.1831   22.3545    0.7280 C   0  0  0  0  0  0  0  0  0  0  0  0
   -7.0473   22.8361   -0.4415 C   0  0  0  0  0  0  0  0  0  0  0  0
   -6.8182   25.3786   -0.7021 C   0  0  0  0  0  0  0  0  0  0  0  0
   -7.6908   24.2154   -0.2558 C   0  0  0  0  0  0  0  0  0  0  0  0
   -5.6958   25.7186    3.6641 C   0  0  0  0  0  0  0  0  0  0  0  0
   -5.9730   25.9912    5.0080 C   0  0  0  0  0  0  0  0  0  0  0  0
   -6.2118   27.3061    5.4144 C   0  0  0  0  0  0  0  0  0  0  0  0
   -6.2113   28.3536    4.4891 C   0  0  0  0  0  0  0  0  0  0  0  0
   -5.9552   28.0787    3.1465 C   0  0  0  0  0  0  0  0  0  0  0  0
   -5.7040   26.7647    2.7343 C   0  0  0  0  0  0  0  0  0  0  0  0
   -6.4617   29.5837    5.0258 O   0  0  0  0  0  0  0  0  0  0  0  0
   -5.8546   29.9227    6.2777 C   0  0  0  0  0  0  0  0  0  0  0  0
   -4.4130   30.3846    6.0666 C   0  0  0  0  0  0  0  0  0  0  0  0
   -3.4168   29.6727    6.9857 C   0  0  0  0  0  0  0  0  0  0  0  0
   -2.3047   30.5176    7.4455 N   0  0  0  0  0  0  0  0  0  0  0  0
   -2.6358   31.9530    7.3636 C   0  0  0  0  0  0  0  0  0  0  0  0
   -2.9832   32.6504    8.6897 C   0  0  0  0  0  0  0  0  0  0  0  0
   -4.4751   32.9852    8.7561 C   0  0  0  0  0  0  0  0  0  0  0  0
   -4.7057   34.4425    9.1212 C   0  0  0  0  0  0  0  0  0  0  0  0
   -1.8047   30.1406    8.7765 C   0  0  0  0  0  0  0  0  0  0  0  0
   -0.2753   30.2347    8.8904 C   0  0  0  0  0  0  0  0  0  0  0  0
    0.4923   29.1464    8.1318 C   0  0  0  0  0  0  0  0  0  0  0  0
    0.5956   29.3833    6.6327 C   0  0  0  0  0  0  0  0  0  0  0  0
 20 21  1  0  0  0
 21 19  1  0  0  0
 19 18  1  0  0  0
 18  3  1  0  0  0
  3  4  2  0  0  0
  4  1  1  0  0  0
  1  2  2  0  0  0
  1 22  1  0  0  0
 22 23  1  0  0  0
 23 24  2  0  0  0
 24 25  1  0  0  0
 25 28  1  0  0  0
 28 29  1  0  0  0
 29 30  1  0  0  0
 30 31  1  0  0  0
 31 32  1  0  0  0
 32 33  1  0  0  0
 33 34  1  0  0  0
 34 35  1  0  0  0
 35 36  1  0  0  0
 32 37  1  0  0  0
 37 38  1  0  0  0
 38 39  1  0  0  0
 39 40  1  0  0  0
 25 26  2  0  0  0
 26 27  1  0  0  0
  4  5  1  0  0  0
  5  6  1  0  0  0
  6  7  2  0  0  0
  7  8  1  0  0  0
  8  9  2  0  0  0
  9 12  1  0  0  0
 12 14  1  0  0  0
 14 15  1  0  0  0
 14 16  2  0  0  0
 14 17  2  0  0  0
  9 10  1  0  0  0
  6 11  1  0  0  0
 11  3  1  0  0  0
 27 22  2  0  0  0
 10  5  2  0  0  0
 12 13  1  0  0  0
M  END
> <minimizedAffinity>
-9.88563

$$$$
OCNT-2328475


 22 23  0  0  0  0  0  0  0  0999 V2000
   -3.7922   30.4916    8.5129 C   0  0  0  0  0  0  0  0  0  0  0  0
   -4.4556   30.2007    9.7579 O   0  0  0  0  0  0  0  0  0  0  0  0
   -5.7897   29.7910    9.4233 C   0  0  0  0  0  0  0  0  0  0  0  0
   -5.6740   29.0584    8.0914 C   0  0  0  0  0  0  0  0  0  0  0  0
   -6.9236   28.9946    7.4074 O   0  0  0  0  0  0  0  0  0  0  0  0
   -4.6348   29.8945    7.3573 C   0  0  0  0  0  0  0  0  0  0  0  0
   -5.3328   30.9338    6.6311 O   0  0  0  0  0  0  0  0  0  0  0  0
   -6.9492   29.8012    6.8492 H   0  0  0  0  0  0  0  0  0  0  0  0
   -4.6810   31.3462    6.0343 H   0  0  0  0  0  0  0  0  0  0  0  0
    1.5442   29.0986    8.7571 N   0  0  0  0  0  0  0  0  0  0  0  0
    0.2199   29.4303    8.6836 C   0  0  0  0  0  0  0  0  0  0  0  0
   -0.1263   30.5822    9.1627 N   0  0  0  0  0  0  0  0  0  0  0  0
   -1.4396   30.9837    9.1098 C   0  0  0  0  0  0  0  0  0  0  0  0
   -1.7591   32.0994    9.5111 O   0  0  0  0  0  0  0  0  0  0  0  0
   -2.3927   30.0892    8.6164 N   0  0  0  0  0  0  0  0  0  0  0  0
   -2.0099   28.8790    8.0739 C   0  0  0  0  0  0  0  0  0  0  0  0
   -0.7363   28.4912    8.0710 C   0  0  0  0  0  0  0  0  0  0  0  0
    1.9226   28.5610    7.9871 H   0  0  0  0  0  0  0  0  0  0  0  0
    2.1192   29.9040    8.9898 H   0  0  0  0  0  0  0  0  0  0  0  0
   -6.4032   28.9172   10.5145 C   0  0  0  0  0  0  0  0  0  0  0  0
   -5.5882   27.7840   10.8000 O   0  0  0  0  0  0  0  0  0  0  0  0
   -4.6619   28.0949   10.8615 H   0  0  0  0  0  0  0  0  0  0  0  0
 10 11  1  0  0  0
 11 12  2  0  0  0
 12 13  1  0  0  0
 13 14  2  0  0  0
 13 15  1  0  0  0
 15  1  1  0  0  0
  1  2  1  0  0  0
  2  3  1  0  0  0
  3 20  1  0  0  0
 20 21  1  0  0  0
  3  4  1  0  0  0
  4  5  1  0  0  0
  4  6  1  0  0  0
  6  7  1  0  0  0
 15 16  1  0  0  0
 16 17  2  0  0  0
 17 11  1  0  0  0
  6  1  1  0  0  0
 10 18  1  0  0  0
 10 19  1  0  0  0
 21 22  1  0  0  0
  5  8  1  0  0  0
  7  9  1  0  0  0
M  END
> <minimizedAffinity>
-7.70040

$$$$
OCNT-2328485


 21 23  0  0  0  0  0  0  0  0999 V2000
   -4.6397   25.3136    2.9690 N   0  0  0  0  0  0  0  0  0  0  0  0
   -4.9554   23.9791    2.6415 C   0  0  0  0  0  0  0  0  0  0  0  0
   -5.5930   23.7112    1.4158 C   0  0  0  0  0  0  0  0  0  0  0  0
   -5.9527   22.4134    1.0403 C   0  0  0  0  0  0  0  0  0  0  0  0
   -5.6880   21.3473    1.8916 C   0  0  0  0  0  0  0  0  0  0  0  0
   -5.0703   21.5842    3.1150 C   0  0  0  0  0  0  0  0  0  0  0  0
   -4.7122   22.8863    3.4855 C   0  0  0  0  0  0  0  0  0  0  0  0
   -5.6766   26.2664    2.5152 C   0  0  0  0  0  0  0  0  0  0  0  0
   -6.5135   29.3019    5.4771 C   0  0  0  0  0  0  0  0  0  0  0  0
   -6.5161   27.9568    5.8402 C   0  0  0  0  0  0  0  0  0  0  0  0
   -6.2410   26.9759    4.8865 C   0  0  0  0  0  0  0  0  0  0  0  0
   -5.9503   27.3298    3.5598 C   0  0  0  0  0  0  0  0  0  0  0  0
   -5.9608   28.6870    3.2056 C   0  0  0  0  0  0  0  0  0  0  0  0
   -6.2375   29.6671    4.1608 C   0  0  0  0  0  0  0  0  0  0  0  0
   -3.2514   25.7902    2.7183 C   0  0  0  0  0  0  0  0  0  0  0  0
   -2.4775   25.9193    4.0251 C   0  0  0  0  0  0  0  0  0  0  0  0
   -3.0793   26.0751    5.1801 N   0  0  0  0  0  0  0  0  0  0  0  0
   -1.9470   26.2117    6.1443 C   0  0  0  0  0  0  0  0  0  0  0  0
   -0.6897   26.4621    5.3032 C   0  0  0  0  0  0  0  0  0  0  0  0
   -1.0985   25.9113    4.0360 N   0  0  0  0  0  0  0  0  0  0  0  0
   -0.7067   26.3198    3.1893 H   0  0  0  0  0  0  0  0  0  0  0  0
  9 10  2  0  0  0
 10 11  1  0  0  0
 11 12  2  0  0  0
 12  8  1  0  0  0
  8  1  1  0  0  0
  1 15  1  0  0  0
 15 16  1  0  0  0
 16 17  2  0  0  0
 17 18  1  0  0  0
 18 19  1  0  0  0
 19 20  1  0  0  0
  1  2  1  0  0  0
  2  3  2  0  0  0
  3  4  1  0  0  0
  4  5  2  0  0  0
  5  6  1  0  0  0
  6  7  2  0  0  0
 12 13  1  0  0  0
 13 14  2  0  0  0
 14  9  1  0  0  0
 20 16  1  0  0  0
  7  2  1  0  0  0
 20 21  1  0  0  0
M  END
> <minimizedAffinity>
-8.26597

$$$$
OCNT-2328488


 23 25  0  0  0  0  0  0  0  0999 V2000
   -5.0469   29.1648    6.6256 C   0  0  0  0  0  0  0  0  0  0  0  0
   -4.6825   34.5454    9.3817 Cl  0  0  0  0  0  0  0  0  0  0  0  0
   -4.7950   33.0072    8.6208 C   0  0  0  0  0  0  0  0  0  0  0  0
   -4.2131   32.8102    7.3736 C   0  0  0  0  0  0  0  0  0  0  0  0
   -4.3046   31.5615    6.7550 C   0  0  0  0  0  0  0  0  0  0  0  0
   -4.9808   30.4901    7.3745 C   0  0  0  0  0  0  0  0  0  0  0  0
   -5.5555   30.7140    8.6405 C   0  0  0  0  0  0  0  0  0  0  0  0
   -6.3969   29.4842    9.5143 Cl  0  0  0  0  0  0  0  0  0  0  0  0
   -5.4634   31.9668    9.2568 C   0  0  0  0  0  0  0  0  0  0  0  0
   -5.7609   29.3134    5.2705 C   0  0  0  0  0  0  0  0  0  0  0  0
   -5.8271   28.0413    4.5678 N   0  0  0  0  0  0  0  0  0  0  0  0
   -5.5991   27.8381    3.2361 C   0  0  0  0  0  0  0  0  0  0  0  0
   -5.7555   26.4842    3.0541 C   0  0  0  0  0  0  0  0  0  0  0  0
   -6.0730   25.8682    4.2379 N   0  0  0  0  0  0  0  0  0  0  0  0
   -6.1236   26.8326    5.1286 C   0  0  0  0  0  0  0  0  0  0  0  0
   -3.7295   28.6474    6.4094 O   0  0  0  0  0  0  0  0  0  0  0  0
   -3.1443   28.0796    7.5796 C   0  0  0  0  0  0  0  0  0  0  0  0
   -1.7985   28.6815    7.8199 C   0  0  0  0  0  0  0  0  0  0  0  0
   -0.6150   28.2618    7.2525 C   0  0  0  0  0  0  0  0  0  0  0  0
   -0.3918   26.9683    6.1370 Cl  0  0  0  0  0  0  0  0  0  0  0  0
    0.7392   29.1558    7.7392 S   0  0  0  0  0  0  0  0  0  0  0  0
   -0.2204   30.1437    8.7540 C   0  0  0  0  0  0  0  0  0  0  0  0
   -1.5510   29.7856    8.7076 C   0  0  0  0  0  0  0  0  0  0  0  0
  2  3  1  0  0  0
  3  4  1  0  0  0
  4  5  2  0  0  0
  5  6  1  0  0  0
  6  1  1  0  0  0
  1 10  1  0  0  0
 10 11  1  0  0  0
 11 12  1  0  0  0
 12 13  2  0  0  0
 13 14  1  0  0  0
 14 15  2  0  0  0
  1 16  1  0  0  0
 16 17  1  0  0  0
 17 18  1  0  0  0
 18 19  2  0  0  0
 19 20  1  0  0  0
 19 21  1  0  0  0
 21 22  1  0  0  0
 22 23  2  0  0  0
  6  7  2  0  0  0
  7  8  1  0  0  0
  7  9  1  0  0  0
  9  3  2  0  0  0
 15 11  1  0  0  0
 23 18  1  0  0  0
M  END
> <minimizedAffinity>
-7.41912

$$$$
OCNT-2328499


 23 25  0  0  0  0  0  0  0  0999 V2000
   -4.2312   29.6629    8.9279 C   0  0  0  0  0  0  0  0  0  0  0  0
   -4.6814   29.0326    7.6990 O   0  0  0  0  0  0  0  0  0  0  0  0
   -5.6333   29.9203    7.0751 C   0  0  0  0  0  0  0  0  0  0  0  0
   -5.3259   31.3109    7.6221 C   0  0  0  0  0  0  0  0  0  0  0  0
   -6.4316   32.2067    7.5429 O   0  0  0  0  0  0  0  0  0  0  0  0
   -4.9942   30.9849    9.0685 C   0  0  0  0  0  0  0  0  0  0  0  0
   -6.2208   30.8018    9.8004 O   0  0  0  0  0  0  0  0  0  0  0  0
   -6.4542   32.5442    6.6282 H   0  0  0  0  0  0  0  0  0  0  0  0
   -6.8088   31.5201    9.4867 H   0  0  0  0  0  0  0  0  0  0  0  0
    1.6516   29.2380    7.9986 O   0  0  0  0  0  0  0  0  0  0  0  0
    0.4826   28.8813    7.8941 C   0  0  0  0  0  0  0  0  0  0  0  0
    0.1273   27.7340    7.1980 N   0  0  0  0  0  0  0  0  0  0  0  0
   -1.1758   27.2886    7.0652 C   0  0  0  0  0  0  0  0  0  0  0  0
   -2.2245   27.8739    7.5611 N   0  0  0  0  0  0  0  0  0  0  0  0
   -1.9127   29.0048    8.2390 C   0  0  0  0  0  0  0  0  0  0  0  0
   -0.6693   29.5582    8.4545 C   0  0  0  0  0  0  0  0  0  0  0  0
   -0.7541   30.7027    9.2033 N   0  0  0  0  0  0  0  0  0  0  0  0
   -2.0454   30.8509    9.4302 C   0  0  0  0  0  0  0  0  0  0  0  0
   -2.7899   29.8428    8.8704 N   0  0  0  0  0  0  0  0  0  0  0  0
    0.8930   27.2238    6.7853 H   0  0  0  0  0  0  0  0  0  0  0  0
   -5.5431   29.8088    5.5541 C   0  0  0  0  0  0  0  0  0  0  0  0
   -4.7353   30.8521    5.0143 O   0  0  0  0  0  0  0  0  0  0  0  0
   -4.5208   30.6035    4.0972 H   0  0  0  0  0  0  0  0  0  0  0  0
 10 11  2  0  0  0
 11 12  1  0  0  0
 12 13  1  0  0  0
 13 14  2  0  0  0
 14 15  1  0  0  0
 15 16  2  0  0  0
 16 17  1  0  0  0
 17 18  2  0  0  0
 18 19  1  0  0  0
 19  1  1  0  0  0
  1  2  1  0  0  0
  2  3  1  0  0  0
  3 21  1  0  0  0
 21 22  1  0  0  0
  3  4  1  0  0  0
  4  5  1  0  0  0
  4  6  1  0  0  0
  6  7  1  0  0  0
 16 11  1  0  0  0
  6  1  1  0  0  0
 19 15  1  0  0  0
 12 20  1  0  0  0
 22 23  1  0  0  0
  5  8  1  0  0  0
  7  9  1  0  0  0
M  END
> <minimizedAffinity>
-7.99689

$$$$
OCNT-2328509


 21 24  0  0  0  0  0  0  0  0999 V2000
   -3.9029   28.5328    5.6803 N   0  0  0  0  0  0  0  0  0  0  0  0
   -4.4459   28.7828    6.8911 C   0  0  0  0  0  0  0  0  0  0  0  0
   -5.7320   28.6354    7.0924 N   0  0  0  0  0  0  0  0  0  0  0  0
   -5.8840   29.0364    8.5231 C   0  0  0  0  0  0  0  0  0  0  0  0
   -4.6135   29.8377    8.8953 C   0  0  0  0  0  0  0  0  0  0  0  0
   -4.6557   31.3486    8.7359 C   0  0  0  0  0  0  0  0  0  0  0  0
   -3.5158   32.0752    9.1412 C   0  0  0  0  0  0  0  0  0  0  0  0
   -3.4829   33.4697    8.9831 C   0  0  0  0  0  0  0  0  0  0  0  0
   -4.5624   34.1430    8.4158 C   0  0  0  0  0  0  0  0  0  0  0  0
   -5.6792   33.4296    7.9943 C   0  0  0  0  0  0  0  0  0  0  0  0
   -5.7238   32.0423    8.1455 C   0  0  0  0  0  0  0  0  0  0  0  0
   -2.3422   31.3530    9.7635 C   0  0  0  0  0  0  0  0  0  0  0  0
   -1.6400   30.3163    8.8999 C   0  0  0  0  0  0  0  0  0  0  0  0
   -2.2960   29.3633    8.0767 C   0  0  0  0  0  0  0  0  0  0  0  0
   -1.4766   28.4199    7.4164 C   0  0  0  0  0  0  0  0  0  0  0  0
   -0.0839   28.4172    7.5245 C   0  0  0  0  0  0  0  0  0  0  0  0
    0.5435   29.3607    8.3175 C   0  0  0  0  0  0  0  0  0  0  0  0
   -0.2271   30.2922    9.0055 C   0  0  0  0  0  0  0  0  0  0  0  0
   -3.6875   29.3030    7.9062 N   0  0  0  0  0  0  0  0  0  0  0  0
   -4.6289   28.4128    4.9827 H   0  0  0  0  0  0  0  0  0  0  0  0
   -3.2313   29.2402    5.4055 H   0  0  0  0  0  0  0  0  0  0  0  0
  1  2  1  0  0  0
  2  3  2  0  0  0
  3  4  1  0  0  0
  4  5  1  0  0  0
  5  6  1  0  0  0
  6  7  1  0  0  0
  7  8  2  0  0  0
  8  9  1  0  0  0
  9 10  2  0  0  0
 10 11  1  0  0  0
  7 12  1  0  0  0
 12 13  1  0  0  0
 13 14  1  0  0  0
 14 15  2  0  0  0
 15 16  1  0  0  0
 16 17  2  0  0  0
 17 18  1  0  0  0
 14 19  1  0  0  0
 19  2  1  0  0  0
 19  5  1  0  0  0
 11  6  2  0  0  0
 18 13  2  0  0  0
  1 20  1  0  0  0
  1 21  1  0  0  0
M  END
> <minimizedAffinity>
-9.76446

$$$$
OCNT-2328518


 25 26  0  0  0  0  0  0  0  0999 V2000
   -6.6542   23.7578    4.4483 C   0  0  0  0  0  0  0  0  0  0  0  0
   -7.6394   23.7575   -0.4955 C   0  0  0  0  0  0  0  0  0  0  0  0
   -7.0214   23.0814    0.6925 C   0  0  0  0  0  0  0  0  0  0  0  0
   -7.1087   23.6644    1.9646 C   0  0  0  0  0  0  0  0  0  0  0  0
   -6.5078   23.0694    3.0927 C   0  0  0  0  0  0  0  0  0  0  0  0
   -5.8130   21.8684    2.9057 C   0  0  0  0  0  0  0  0  0  0  0  0
   -5.2193   21.2549    3.9719 O   0  0  0  0  0  0  0  0  0  0  0  0
   -5.7060   21.2848    1.6420 C   0  0  0  0  0  0  0  0  0  0  0  0
   -6.3033   21.8936    0.5385 C   0  0  0  0  0  0  0  0  0  0  0  0
   -4.9248   20.3717    3.6976 H   0  0  0  0  0  0  0  0  0  0  0  0
   -7.7342   23.1050    5.3150 C   0  0  0  0  0  0  0  0  0  0  0  0
   -9.0677   22.9797    4.8981 C   0  0  0  0  0  0  0  0  0  0  0  0
  -10.0228   22.3779    5.7216 C   0  0  0  0  0  0  0  0  0  0  0  0
   -9.6613   21.8973    6.9775 C   0  0  0  0  0  0  0  0  0  0  0  0
   -8.3456   22.0230    7.4143 C   0  0  0  0  0  0  0  0  0  0  0  0
   -7.3908   22.6244    6.5916 C   0  0  0  0  0  0  0  0  0  0  0  0
   -5.3039   23.9991    5.1756 C   0  0  0  0  0  0  0  0  0  0  0  0
   -4.8549   25.4722    5.0877 C   0  0  0  0  0  0  0  0  0  0  0  0
   -3.7196   25.7672    4.1964 N   0  0  0  0  0  0  0  0  0  0  0  0
   -2.5312   26.3881    4.8280 C   0  0  0  0  0  0  0  0  0  0  0  0
   -1.2823   25.8234    4.1293 C   0  0  0  0  0  0  0  0  0  0  0  0
   -2.3133   26.2098    6.3415 C   0  0  0  0  0  0  0  0  0  0  0  0
   -4.0915   26.3263    2.8708 C   0  0  0  0  0  0  0  0  0  0  0  0
   -5.5179   26.9122    2.8571 C   0  0  0  0  0  0  0  0  0  0  0  0
   -4.0385   25.3027    1.7206 C   0  0  0  0  0  0  0  0  0  0  0  0
  2  3  1  0  0  0
  3  4  2  0  0  0
  4  5  1  0  0  0
  5  1  1  0  0  0
  1 17  1  0  0  0
 17 18  1  0  0  0
 18 19  1  0  0  0
 19 20  1  0  0  0
 20 21  1  0  0  0
 20 22  1  0  0  0
 19 23  1  0  0  0
 23 24  1  0  0  0
 23 25  1  0  0  0
  1 11  1  0  0  0
 11 12  2  0  0  0
 12 13  1  0  0  0
 13 14  2  0  0  0
 14 15  1  0  0  0
 15 16  2  0  0  0
  5  6  2  0  0  0
  6  7  1  0  0  0
  6  8  1  0  0  0
  8  9  2  0  0  0
  9  3  1  0  0  0
 16 11  1  0  0  0
  7 10  1  0  0  0
M  END
> <minimizedAffinity>
-8.61276

$$$$
OCNT-2328527


 21 22  0  0  0  0  0  0  0  0999 V2000
   -5.8849   29.4995    8.6581 C   0  0  0  0  0  0  0  0  0  0  0  0
   -5.9721   30.7688    7.7850 C   0  0  0  0  0  0  0  0  0  0  0  0
   -7.4300   30.9674    7.3285 C   0  0  0  0  0  0  0  0  0  0  0  0
   -5.7211   31.8867    8.7000 N   0  0  0  0  0  0  0  0  0  0  0  0
   -4.5790   32.4678    8.6374 C   0  0  0  0  0  0  0  0  0  0  0  0
   -4.3228   33.4819    9.4986 N   0  0  0  0  0  0  0  0  0  0  0  0
   -3.5766   32.1363    7.7895 N   0  0  0  0  0  0  0  0  0  0  0  0
   -3.8449   31.3091    6.8331 C   0  0  0  0  0  0  0  0  0  0  0  0
   -2.8540   31.0577    5.9320 N   0  0  0  0  0  0  0  0  0  0  0  0
   -5.0542   30.6935    6.6297 N   0  0  0  0  0  0  0  0  0  0  0  0
   -4.9064   33.4365   10.3225 H   0  0  0  0  0  0  0  0  0  0  0  0
   -3.3347   33.5782    9.6880 H   0  0  0  0  0  0  0  0  0  0  0  0
   -3.1851   30.9916    4.9774 H   0  0  0  0  0  0  0  0  0  0  0  0
   -2.1009   31.7297    6.0255 H   0  0  0  0  0  0  0  0  0  0  0  0
   -5.2238   29.6109    5.7369 C   0  0  0  0  0  0  0  0  0  0  0  0
   -5.9268   29.7910    4.5359 C   0  0  0  0  0  0  0  0  0  0  0  0
   -6.0903   28.7364    3.6327 C   0  0  0  0  0  0  0  0  0  0  0  0
   -5.5401   27.4899    3.9185 C   0  0  0  0  0  0  0  0  0  0  0  0
   -5.7387   26.1920    2.8076 Cl  0  0  0  0  0  0  0  0  0  0  0  0
   -4.8229   27.2915    5.0947 C   0  0  0  0  0  0  0  0  0  0  0  0
   -4.6622   28.3489    5.9944 C   0  0  0  0  0  0  0  0  0  0  0  0
  1  2  1  0  0  0
  2  3  1  0  0  0
  2  4  1  0  0  0
  4  5  2  0  0  0
  5  6  1  0  0  0
  5  7  1  0  0  0
  7  8  2  0  0  0
  8  9  1  0  0  0
  8 10  1  0  0  0
 10 15  1  0  0  0
 15 16  1  0  0  0
 16 17  2  0  0  0
 17 18  1  0  0  0
 18 19  1  0  0  0
 18 20  2  0  0  0
 20 21  1  0  0  0
 10  2  1  0  0  0
 21 15  2  0  0  0
  6 11  1  0  0  0
  6 12  1  0  0  0
  9 13  1  0  0  0
  9 14  1  0  0  0
M  END
> <minimizedAffinity>
-7.33424

$$$$
OCNT-2328533


 21 23  0  0  0  0  0  0  0  0999 V2000
   -4.5100   29.1665    6.8057 C   0  0  0  0  0  0  0  0  0  0  0  0
   -5.4035   29.5978    7.7273 C   0  0  0  0  0  0  0  0  0  0  0  0
    1.1348   29.2455    8.1213 C   0  0  0  0  0  0  0  0  0  0  0  0
   -0.3202   29.2158    7.7577 C   0  0  0  0  0  0  0  0  0  0  0  0
   -1.1235   28.1332    8.1359 C   0  0  0  0  0  0  0  0  0  0  0  0
   -2.4862   28.1203    7.8276 C   0  0  0  0  0  0  0  0  0  0  0  0
   -3.0671   29.1963    7.1464 C   0  0  0  0  0  0  0  0  0  0  0  0
   -2.2669   30.2853    6.7790 C   0  0  0  0  0  0  0  0  0  0  0  0
   -0.9050   30.2975    7.0889 C   0  0  0  0  0  0  0  0  0  0  0  0
   -5.0217   28.6797    5.4857 C   0  0  0  0  0  0  0  0  0  0  0  0
   -4.7399   27.3960    5.1393 N   0  0  0  0  0  0  0  0  0  0  0  0
   -5.1866   26.9535    3.9436 C   0  0  0  0  0  0  0  0  0  0  0  0
   -5.9084   27.7289    3.0543 C   0  0  0  0  0  0  0  0  0  0  0  0
   -6.1910   29.0394    3.4128 C   0  0  0  0  0  0  0  0  0  0  0  0
   -5.7431   29.5234    4.6409 C   0  0  0  0  0  0  0  0  0  0  0  0
   -5.1487   30.0767    9.1298 C   0  0  0  0  0  0  0  0  0  0  0  0
   -5.1154   31.5388    9.2108 N   0  0  0  0  0  0  0  0  0  0  0  0
   -5.6195   32.1595    7.9848 C   0  0  0  0  0  0  0  0  0  0  0  0
   -5.1794   33.6072    8.1299 C   0  0  0  0  0  0  0  0  0  0  0  0
   -3.9417   33.5568    9.0182 C   0  0  0  0  0  0  0  0  0  0  0  0
   -3.7686   32.0882    9.3807 C   0  0  0  0  0  0  0  0  0  0  0  0
  3  4  1  0  0  0
  4  5  1  0  0  0
  5  6  2  0  0  0
  6  7  1  0  0  0
  7  1  1  0  0  0
  1  2  2  0  0  0
  2 16  1  0  0  0
 16 17  1  0  0  0
 17 18  1  0  0  0
 18 19  1  0  0  0
 19 20  1  0  0  0
 20 21  1  0  0  0
  1 10  1  0  0  0
 10 11  1  0  0  0
 11 12  2  0  0  0
 12 13  1  0  0  0
 13 14  2  0  0  0
 14 15  1  0  0  0
  7  8  2  0  0  0
  8  9  1  0  0  0
  9  4  2  0  0  0
 21 17  1  0  0  0
 15 10  2  0  0  0
M  END
> <minimizedAffinity>
-8.40659

$$$$
OCNT-2328534


 20 22  0  0  0  0  0  0  0  0999 V2000
   -5.4435   27.4270    4.0046 C   0  0  0  0  0  0  0  0  0  0  0  0
   -5.7859   26.0420    3.6906 N   0  0  0  0  0  0  0  0  0  0  0  0
   -5.7961   25.8299    2.2322 C   0  0  0  0  0  0  0  0  0  0  0  0
   -6.0049   24.3874    1.8059 C   0  0  0  0  0  0  0  0  0  0  0  0
   -6.4226   24.0763    0.4925 C   0  0  0  0  0  0  0  0  0  0  0  0
   -6.5934   25.0659   -0.4942 N   0  0  0  0  0  0  0  0  0  0  0  0
   -6.4563   22.7338    0.0867 C   0  0  0  0  0  0  0  0  0  0  0  0
   -6.1785   21.7015    0.9791 C   0  0  0  0  0  0  0  0  0  0  0  0
   -5.8109   22.0002    2.2845 C   0  0  0  0  0  0  0  0  0  0  0  0
   -5.7019   23.3358    2.7052 C   0  0  0  0  0  0  0  0  0  0  0  0
   -5.2451   23.6290    4.1295 C   0  0  0  0  0  0  0  0  0  0  0  0
   -4.8383   25.1118    4.3238 C   0  0  0  0  0  0  0  0  0  0  0  0
   -6.9520   25.9457   -0.1410 H   0  0  0  0  0  0  0  0  0  0  0  0
   -7.1391   24.7437   -1.2883 H   0  0  0  0  0  0  0  0  0  0  0  0
   -6.2463   23.1675    5.1863 C   0  0  0  0  0  0  0  0  0  0  0  0
   -7.6016   23.5260    5.1206 C   0  0  0  0  0  0  0  0  0  0  0  0
   -8.5016   23.0968    6.0976 C   0  0  0  0  0  0  0  0  0  0  0  0
   -8.0598   22.3039    7.1540 C   0  0  0  0  0  0  0  0  0  0  0  0
   -6.7178   21.9395    7.2347 C   0  0  0  0  0  0  0  0  0  0  0  0
   -5.8160   22.3681    6.2582 C   0  0  0  0  0  0  0  0  0  0  0  0
  1  2  1  0  0  0
  2  3  1  0  0  0
  3  4  1  0  0  0
  4  5  2  0  0  0
  5  6  1  0  0  0
  5  7  1  0  0  0
  7  8  2  0  0  0
  8  9  1  0  0  0
  9 10  2  0  0  0
 10 11  1  0  0  0
 11 15  1  0  0  0
 15 16  2  0  0  0
 16 17  1  0  0  0
 17 18  2  0  0  0
 18 19  1  0  0  0
 19 20  2  0  0  0
 11 12  1  0  0  0
 12  2  1  0  0  0
 10  4  1  0  0  0
 20 15  1  0  0  0
  6 13  1  0  0  0
  6 14  1  0  0  0
M  END
> <minimizedAffinity>
-8.43778

$$$$
OCNT-2328540


 26 27  0  0  0  0  0  0  0  0999 V2000
   -4.8934   25.6806    4.2244 C   0  0  0  0  0  0  0  0  0  0  0  0
   -5.2365   24.9489    5.4384 O   0  0  0  0  0  0  0  0  0  0  0  0
   -4.5844   25.1902    6.1274 H   0  0  0  0  0  0  0  0  0  0  0  0
   -5.2412   24.7378    3.0563 C   0  0  0  0  0  0  0  0  0  0  0  0
   -5.7967   25.1926    1.8461 C   0  0  0  0  0  0  0  0  0  0  0  0
   -6.0909   24.3103    0.8000 C   0  0  0  0  0  0  0  0  0  0  0  0
   -5.8490   22.9473    0.9414 C   0  0  0  0  0  0  0  0  0  0  0  0
   -5.3269   22.4653    2.1340 C   0  0  0  0  0  0  0  0  0  0  0  0
   -5.0344   23.3481    3.1779 C   0  0  0  0  0  0  0  0  0  0  0  0
   -5.7775   26.9696    4.2380 C   0  0  0  0  0  0  0  0  0  0  0  0
   -5.2437   28.1382    3.3868 C   0  0  0  0  0  0  0  0  0  0  0  0
   -6.1838   29.3429    3.4082 C   0  0  0  0  0  0  0  0  0  0  0  0
   -6.4755   29.8121    4.8259 C   0  0  0  0  0  0  0  0  0  0  0  0
   -7.0074   28.6760    5.6865 C   0  0  0  0  0  0  0  0  0  0  0  0
   -6.0882   27.4588    5.6732 C   0  0  0  0  0  0  0  0  0  0  0  0
   -3.3651   25.9367    4.3776 C   0  0  0  0  0  0  0  0  0  0  0  0
   -2.6056   26.0573    3.4167 O   0  0  0  0  0  0  0  0  0  0  0  0
   -2.9164   26.0207    5.6638 O   0  0  0  0  0  0  0  0  0  0  0  0
   -1.9959   27.1031    5.8969 C   0  0  0  0  0  0  0  0  0  0  0  0
   -2.6356   28.3934    6.4369 C   0  0  0  0  0  0  0  0  0  0  0  0
   -1.6375   29.4267    7.0383 N   0  0  0  0  0  0  0  0  0  0  0  0
   -1.7708   29.3616    8.5716 C   0  0  0  0  0  0  0  0  0  0  0  0
    0.8101   29.1779    7.8437 C   0  0  0  0  0  0  0  0  0  0  0  0
   -0.1552   29.1456    6.6626 C   0  0  0  0  0  0  0  0  0  0  0  0
   -1.9340   30.8747    6.5693 C   0  0  0  0  0  0  0  0  0  0  0  0
   -3.4099   31.2297    6.5196 C   0  0  0  0  0  0  0  0  0  0  0  0
 23 24  1  0  0  0
 24 21  1  0  0  0
 21 22  1  0  0  0
 21 25  1  0  0  0
 25 26  1  0  0  0
 21 20  1  0  0  0
 20 19  1  0  0  0
 19 18  1  0  0  0
 18 16  1  0  0  0
 16 17  2  0  0  0
 16  1  1  0  0  0
  1  2  1  0  0  0
  1  4  1  0  0  0
  4  5  2  0  0  0
  5  6  1  0  0  0
  6  7  2  0  0  0
  7  8  1  0  0  0
  8  9  2  0  0  0
  1 10  1  0  0  0
 10 11  1  0  0  0
 11 12  1  0  0  0
 12 13  1  0  0  0
 13 14  1  0  0  0
 14 15  1  0  0  0
  9  4  1  0  0  0
 15 10  1  0  0  0
  2  3  1  0  0  0
M  CHG 1  21   1
M  END
> <minimizedAffinity>
-7.99177

$$$$
OCNT-2328544


 21 22  0  0  0  0  0  0  0  0999 V2000
   -4.9081   25.8253    4.0216 C   0  0  0  0  0  0  0  0  0  0  0  0
   -4.8618   24.8324    5.2049 C   0  0  0  0  0  0  0  0  0  0  0  0
   -5.6648   25.0959    2.8816 C   0  0  0  0  0  0  0  0  0  0  0  0
   -5.5637   25.5250    1.5444 C   0  0  0  0  0  0  0  0  0  0  0  0
   -6.2296   24.8510    0.5163 C   0  0  0  0  0  0  0  0  0  0  0  0
   -7.0018   23.7315    0.8104 C   0  0  0  0  0  0  0  0  0  0  0  0
   -7.9029   22.8200   -0.5788 Br  0  0  0  0  0  0  0  0  0  0  0  0
   -7.1116   23.2772    2.1209 C   0  0  0  0  0  0  0  0  0  0  0  0
   -6.4445   23.9519    3.1475 C   0  0  0  0  0  0  0  0  0  0  0  0
   -5.5633   27.1851    4.3310 C   0  0  0  0  0  0  0  0  0  0  0  0
   -5.5771   28.2542    3.4189 C   0  0  0  0  0  0  0  0  0  0  0  0
   -6.1836   29.4704    3.7479 C   0  0  0  0  0  0  0  0  0  0  0  0
   -6.7847   29.6417    4.9921 C   0  0  0  0  0  0  0  0  0  0  0  0
   -6.7811   28.5982    5.9122 C   0  0  0  0  0  0  0  0  0  0  0  0
   -6.1766   27.3834    5.5853 C   0  0  0  0  0  0  0  0  0  0  0  0
   -3.5669   26.0879    3.5429 O   0  0  0  0  0  0  0  0  0  0  0  0
   -2.5853   26.3990    4.5366 C   0  0  0  0  0  0  0  0  0  0  0  0
   -1.2735   25.6958    4.1520 C   0  0  0  0  0  0  0  0  0  0  0  0
    0.8182   26.8514    3.8758 C   0  0  0  0  0  0  0  0  0  0  0  0
   -0.0809   26.2193    4.8457 N   0  0  0  0  0  0  0  0  0  0  0  0
   -0.4407   27.1871    5.8849 C   0  0  0  0  0  0  0  0  0  0  0  0
 19 20  1  0  0  0
 20 21  1  0  0  0
 20 18  1  0  0  0
 18 17  1  0  0  0
 17 16  1  0  0  0
 16  1  1  0  0  0
  1  2  1  0  0  0
  1 10  1  0  0  0
 10 11  2  0  0  0
 11 12  1  0  0  0
 12 13  2  0  0  0
 13 14  1  0  0  0
 14 15  2  0  0  0
  1  3  1  0  0  0
  3  4  1  0  0  0
  4  5  2  0  0  0
  5  6  1  0  0  0
  6  7  1  0  0  0
  6  8  2  0  0  0
  8  9  1  0  0  0
 15 10  1  0  0  0
  9  3  2  0  0  0
M  END
> <minimizedAffinity>
-7.79557

$$$$
OCNT-2328546


 33 36  0  0  0  0  0  0  0  0999 V2000
   -5.9690   29.3504    5.2606 C   0  0  0  0  0  0  0  0  0  0  0  0
   -5.5853   30.1474    4.1266 O   0  0  0  0  0  0  0  0  0  0  0  0
   -5.3754   31.0301    4.4882 H   0  0  0  0  0  0  0  0  0  0  0  0
   -6.1182   27.8851    4.8123 C   0  0  0  0  0  0  0  0  0  0  0  0
   -4.9995   27.0580    5.2898 N   0  0  0  0  0  0  0  0  0  0  0  0
   -4.2280   27.7001    5.5043 H   0  0  0  0  0  0  0  0  0  0  0  0
   -4.5324   26.0986    4.2796 C   0  0  0  0  0  0  0  0  0  0  0  0
   -5.0737   26.3430    2.8617 C   0  0  0  0  0  0  0  0  0  0  0  0
   -4.5974   25.3590    1.9432 O   0  0  0  0  0  0  0  0  0  0  0  0
   -5.5634   23.2867    1.3655 C   0  0  0  0  0  0  0  0  0  0  0  0
   -6.4440   22.5144    0.5990 C   0  0  0  0  0  0  0  0  0  0  0  0
   -7.2516   23.1166   -0.3679 C   0  0  0  0  0  0  0  0  0  0  0  0
   -7.1890   24.4914   -0.5703 C   0  0  0  0  0  0  0  0  0  0  0  0
   -6.3150   25.2722    0.1897 C   0  0  0  0  0  0  0  0  0  0  0  0
   -5.4923   24.6798    1.1543 C   0  0  0  0  0  0  0  0  0  0  0  0
   -5.1268   21.5821    2.9821 C   0  0  0  0  0  0  0  0  0  0  0  0
   -4.7309   22.7814    2.3344 O   0  0  0  0  0  0  0  0  0  0  0  0
   -4.9442   29.5300    6.3863 C   0  0  0  0  0  0  0  0  0  0  0  0
   -4.1832   30.7163    6.0782 O   0  0  0  0  0  0  0  0  0  0  0  0
   -3.9265   31.4084    7.2432 C   0  0  0  0  0  0  0  0  0  0  0  0
   -4.9009   32.2944    7.7174 C   0  0  0  0  0  0  0  0  0  0  0  0
   -4.6863   33.0114    8.8910 C   0  0  0  0  0  0  0  0  0  0  0  0
   -3.5051   32.8560    9.6230 C   0  0  0  0  0  0  0  0  0  0  0  0
   -2.5557   31.9421    9.1466 C   0  0  0  0  0  0  0  0  0  0  0  0
   -2.7391   31.1988    7.9796 C   0  0  0  0  0  0  0  0  0  0  0  0
   -1.5866   30.3600    7.8245 C   0  0  0  0  0  0  0  0  0  0  0  0
   -1.1949   29.3897    6.8776 C   0  0  0  0  0  0  0  0  0  0  0  0
    0.0352   28.7382    7.0225 C   0  0  0  0  0  0  0  0  0  0  0  0
    0.8748   29.0390    8.0917 C   0  0  0  0  0  0  0  0  0  0  0  0
    0.5101   29.9920    9.0475 C   0  0  0  0  0  0  0  0  0  0  0  0
   -0.7250   30.6316    8.8875 C   0  0  0  0  0  0  0  0  0  0  0  0
   -1.3337   31.5862    9.6658 N   0  0  0  0  0  0  0  0  0  0  0  0
   -0.9379   31.9696   10.5119 H   0  0  0  0  0  0  0  0  0  0  0  0
 16 17  1  0  0  0
 17 10  1  0  0  0
 10 11  2  0  0  0
 11 12  1  0  0  0
 12 13  2  0  0  0
 13 14  1  0  0  0
 14 15  2  0  0  0
 15  9  1  0  0  0
  9  8  1  0  0  0
  8  7  1  0  0  0
  7  5  1  0  0  0
  5  4  1  0  0  0
  4  1  1  0  0  0
  1  2  1  0  0  0
  1 18  1  0  0  0
 18 19  1  0  0  0
 19 20  1  0  0  0
 20 21  1  0  0  0
 21 22  2  0  0  0
 22 23  1  0  0  0
 23 24  2  0  0  0
 24 25  1  0  0  0
 25 26  1  0  0  0
 26 27  2  0  0  0
 27 28  1  0  0  0
 28 29  2  0  0  0
 29 30  1  0  0  0
 30 31  2  0  0  0
 31 32  1  0  0  0
 15 10  1  0  0  0
 25 20  2  0  0  0
 31 26  1  0  0  0
 32 24  1  0  0  0
  5  6  1  0  0  0
  2  3  1  0  0  0
 32 33  1  0  0  0
M  END
> <minimizedAffinity>
-9.96859

$$$$
OCNT-2328552


 20 23  0  0  0  0  0  0  0  0999 V2000
   -5.8927   21.8577    6.4544 C   0  0  0  0  0  0  0  0  0  0  0  0
   -5.4526   22.6990    5.3533 N   0  0  0  0  0  0  0  0  0  0  0  0
   -6.2852   22.5607    4.1457 C   0  0  0  0  0  0  0  0  0  0  0  0
   -6.5199   23.9892    3.6087 C   0  0  0  0  0  0  0  0  0  0  0  0
   -6.6231   24.1222    2.1036 C   0  0  0  0  0  0  0  0  0  0  0  0
   -5.9998   25.1383    1.3585 C   0  0  0  0  0  0  0  0  0  0  0  0
   -6.1403   25.1860   -0.0361 C   0  0  0  0  0  0  0  0  0  0  0  0
   -6.9396   24.2618   -0.7032 C   0  0  0  0  0  0  0  0  0  0  0  0
   -7.5998   23.2780    0.0215 C   0  0  0  0  0  0  0  0  0  0  0  0
   -7.4461   23.2119    1.4082 C   0  0  0  0  0  0  0  0  0  0  0  0
   -5.1600   26.1059    1.8668 O   0  0  0  0  0  0  0  0  0  0  0  0
   -5.6163   26.8378    2.9385 C   0  0  0  0  0  0  0  0  0  0  0  0
   -5.6972   26.2627    4.2157 C   0  0  0  0  0  0  0  0  0  0  0  0
   -6.0503   27.0813    5.2959 C   0  0  0  0  0  0  0  0  0  0  0  0
   -6.3158   28.4383    5.0897 C   0  0  0  0  0  0  0  0  0  0  0  0
   -6.7555   29.4307    6.4260 Cl  0  0  0  0  0  0  0  0  0  0  0  0
   -6.2258   28.9984    3.8165 C   0  0  0  0  0  0  0  0  0  0  0  0
   -5.8630   28.1962    2.7365 C   0  0  0  0  0  0  0  0  0  0  0  0
   -5.4193   24.7880    4.3202 C   0  0  0  0  0  0  0  0  0  0  0  0
   -5.4260   24.1244    5.6971 C   0  0  0  0  0  0  0  0  0  0  0  0
  1  2  1  0  0  0
  2  3  1  0  0  0
  3  4  1  0  0  0
  4  5  1  0  0  0
  5  6  1  0  0  0
  6  7  2  0  0  0
  7  8  1  0  0  0
  8  9  2  0  0  0
  9 10  1  0  0  0
  6 11  1  0  0  0
 11 12  1  0  0  0
 12 13  2  0  0  0
 13 14  1  0  0  0
 14 15  2  0  0  0
 15 16  1  0  0  0
 15 17  1  0  0  0
 17 18  2  0  0  0
 13 19  1  0  0  0
 19 20  1  0  0  0
 20  2  1  0  0  0
 19  4  1  0  0  0
 10  5  2  0  0  0
 18 12  1  0  0  0
M  END
> <minimizedAffinity>
-9.31245

$$$$
OCNT-2328558


 35 38  0  0  0  0  0  0  0  0999 V2000
   -3.9289   30.5726    7.7752 C   0  0  0  0  0  0  0  0  0  0  0  0
   -2.3857   30.3714    7.8659 C   0  0  0  0  0  0  0  0  0  0  0  0
   -1.6871   29.8109    6.7751 C   0  0  0  0  0  0  0  0  0  0  0  0
   -0.3079   29.5983    6.8281 C   0  0  0  0  0  0  0  0  0  0  0  0
    0.4038   29.9280    7.9763 C   0  0  0  0  0  0  0  0  0  0  0  0
   -0.2648   30.4616    9.0736 C   0  0  0  0  0  0  0  0  0  0  0  0
   -1.6460   30.6746    9.0237 C   0  0  0  0  0  0  0  0  0  0  0  0
   -4.1666   32.0666    8.2162 C   0  0  0  0  0  0  0  0  0  0  0  0
   -4.7440   33.0192    7.3539 C   0  0  0  0  0  0  0  0  0  0  0  0
   -4.9929   34.3314    7.7701 C   0  0  0  0  0  0  0  0  0  0  0  0
   -4.6973   34.7215    9.0703 C   0  0  0  0  0  0  0  0  0  0  0  0
   -4.1660   33.7947    9.9588 C   0  0  0  0  0  0  0  0  0  0  0  0
   -3.9161   32.4831    9.5414 C   0  0  0  0  0  0  0  0  0  0  0  0
   -6.5944   28.7706   10.0532 C   0  0  0  0  0  0  0  0  0  0  0  0
   -5.9103   29.8262    9.3154 N   0  0  0  0  0  0  0  0  0  0  0  0
   -6.6510   31.0796    9.2489 C   0  0  0  0  0  0  0  0  0  0  0  0
   -4.7029   29.5135    8.6804 C   0  0  0  0  0  0  0  0  0  0  0  0
   -4.1945   28.4053    8.9062 O   0  0  0  0  0  0  0  0  0  0  0  0
   -4.5260   30.3408    6.3327 C   0  0  0  0  0  0  0  0  0  0  0  0
   -5.9626   29.7715    6.3207 C   0  0  0  0  0  0  0  0  0  0  0  0
   -6.0754   28.5893    5.4352 N   0  0  0  0  0  0  0  0  0  0  0  0
   -5.9100   29.0113    4.0321 C   0  0  0  0  0  0  0  0  0  0  0  0
   -6.1153   27.8291    3.0836 C   0  0  0  0  0  0  0  0  0  0  0  0
   -5.1338   26.6815    3.3769 C   0  0  0  0  0  0  0  0  0  0  0  0
   -3.8126   27.1728    3.0858 O   0  0  0  0  0  0  0  0  0  0  0  0
   -5.2002   26.3359    4.8733 C   0  0  0  0  0  0  0  0  0  0  0  0
   -5.0550   27.5763    5.7588 C   0  0  0  0  0  0  0  0  0  0  0  0
   -3.6798   27.0846    2.1259 H   0  0  0  0  0  0  0  0  0  0  0  0
   -5.3345   25.4217    2.5254 C   0  0  0  0  0  0  0  0  0  0  0  0
   -5.8919   25.4445    1.2362 C   0  0  0  0  0  0  0  0  0  0  0  0
   -6.0572   24.2647    0.5006 C   0  0  0  0  0  0  0  0  0  0  0  0
   -5.6658   23.0443    1.0423 C   0  0  0  0  0  0  0  0  0  0  0  0
   -5.8712   21.5981    0.1347 Cl  0  0  0  0  0  0  0  0  0  0  0  0
   -5.1086   22.9915    2.3144 C   0  0  0  0  0  0  0  0  0  0  0  0
   -4.9457   24.1699    3.0477 C   0  0  0  0  0  0  0  0  0  0  0  0
 14 15  1  0  0  0
 15 16  1  0  0  0
 15 17  1  0  0  0
 17 18  2  0  0  0
 17  1  1  0  0  0
  1 19  1  0  0  0
 19 20  1  0  0  0
 20 21  1  0  0  0
 21 22  1  0  0  0
 22 23  1  0  0  0
 23 24  1  0  0  0
 24 25  1  0  0  0
 24 29  1  0  0  0
 29 30  1  0  0  0
 30 31  2  0  0  0
 31 32  1  0  0  0
 32 33  1  0  0  0
 32 34  2  0  0  0
 34 35  1  0  0  0
 24 26  1  0  0  0
 26 27  1  0  0  0
  1  2  1  0  0  0
  2  3  2  0  0  0
  3  4  1  0  0  0
  4  5  2  0  0  0
  5  6  1  0  0  0
  6  7  2  0  0  0
  1  8  1  0  0  0
  8  9  2  0  0  0
  9 10  1  0  0  0
 10 11  2  0  0  0
 11 12  1  0  0  0
 12 13  2  0  0  0
 27 21  1  0  0  0
  7  2  1  0  0  0
 13  8  1  0  0  0
 35 29  2  0  0  0
 25 28  1  0  0  0
M  END
> <minimizedAffinity>
-11.10827

$$$$
OCNT-2328559


 27 29  0  0  0  0  0  0  0  0999 V2000
   -2.2243   28.2462    5.9409 N   0  0  0  0  0  0  0  0  0  0  0  0
   -2.4857   29.2330    5.9055 H   0  0  0  0  0  0  0  0  0  0  0  0
   -3.6609   26.3518    5.1725 C   0  0  0  0  0  0  0  0  0  0  0  0
   -3.4562   27.4713    6.1998 C   0  0  0  0  0  0  0  0  0  0  0  0
   -4.6884   28.3848    6.1909 C   0  0  0  0  0  0  0  0  0  0  0  0
   -5.4041   28.5358    4.9832 C   0  0  0  0  0  0  0  0  0  0  0  0
   -6.5279   29.3492    4.9058 C   0  0  0  0  0  0  0  0  0  0  0  0
   -6.9698   30.0219    6.0385 C   0  0  0  0  0  0  0  0  0  0  0  0
   -6.3064   29.8810    7.2650 C   0  0  0  0  0  0  0  0  0  0  0  0
   -6.7927   30.5621    8.3935 C   0  0  0  0  0  0  0  0  0  0  0  0
   -6.1728   30.4351    9.6338 C   0  0  0  0  0  0  0  0  0  0  0  0
   -5.0587   29.6197    9.7613 C   0  0  0  0  0  0  0  0  0  0  0  0
   -4.5611   28.9375    8.6469 C   0  0  0  0  0  0  0  0  0  0  0  0
   -5.1576   29.0506    7.3664 C   0  0  0  0  0  0  0  0  0  0  0  0
   -1.2052   28.0727    6.9774 C   0  0  0  0  0  0  0  0  0  0  0  0
   -0.5022   29.4018    7.2831 C   0  0  0  0  0  0  0  0  0  0  0  0
   -1.2339   30.6475    6.7679 C   0  0  0  0  0  0  0  0  0  0  0  0
   -1.9619   31.4106    7.8481 C   0  0  0  0  0  0  0  0  0  0  0  0
   -3.0096   32.2837    7.5234 C   0  0  0  0  0  0  0  0  0  0  0  0
   -3.7041   32.9823    8.5252 C   0  0  0  0  0  0  0  0  0  0  0  0
   -3.3255   32.8042    9.8640 C   0  0  0  0  0  0  0  0  0  0  0  0
   -2.2868   31.9346   10.1952 C   0  0  0  0  0  0  0  0  0  0  0  0
   -1.6103   31.2409    9.1927 C   0  0  0  0  0  0  0  0  0  0  0  0
   -4.8135   33.9366    8.1611 C   0  0  0  0  0  0  0  0  0  0  0  0
   -6.0085   33.3052    7.9947 F   0  0  0  0  0  0  0  0  0  0  0  0
   -4.5829   34.6115    6.9997 F   0  0  0  0  0  0  0  0  0  0  0  0
   -5.0263   34.8944    9.1075 F   0  0  0  0  0  0  0  0  0  0  0  0
  3  4  1  0  0  0
  4  1  1  0  0  0
  1 15  1  0  0  0
 15 16  1  0  0  0
 16 17  1  0  0  0
 17 18  1  0  0  0
 18 19  1  0  0  0
 19 20  2  0  0  0
 20 24  1  0  0  0
 24 25  1  0  0  0
 24 26  1  0  0  0
 24 27  1  0  0  0
 20 21  1  0  0  0
 21 22  2  0  0  0
 22 23  1  0  0  0
  4  5  1  0  0  0
  5  6  2  0  0  0
  6  7  1  0  0  0
  7  8  2  0  0  0
  8  9  1  0  0  0
  9 10  2  0  0  0
 10 11  1  0  0  0
 11 12  2  0  0  0
 12 13  1  0  0  0
 13 14  2  0  0  0
 23 18  2  0  0  0
 14  5  1  0  0  0
 14  9  1  0  0  0
  1  2  1  0  0  0
M  END
> <minimizedAffinity>
-8.90267

$$$$
OCNT-2328568


 34 36  0  0  0  0  0  0  0  0999 V2000
   -4.8423   26.7293    4.7205 C   0  0  0  0  0  0  0  0  0  0  0  0
   -3.4799   26.3872    4.7192 C   0  0  0  0  0  0  0  0  0  0  0  0
   -2.5066   27.0828    5.4619 C   0  0  0  0  0  0  0  0  0  0  0  0
   -1.1276   26.7292    5.4275 C   0  0  0  0  0  0  0  0  0  0  0  0
   -0.5332   25.4069    4.4702 Cl  0  0  0  0  0  0  0  0  0  0  0  0
   -0.1716   27.4286    6.1594 C   0  0  0  0  0  0  0  0  0  0  0  0
   -0.5750   28.4940    6.9384 C   0  0  0  0  0  0  0  0  0  0  0  0
    0.5877   29.3759    7.8500 Cl  0  0  0  0  0  0  0  0  0  0  0  0
   -1.9205   28.8593    6.9914 C   0  0  0  0  0  0  0  0  0  0  0  0
   -2.9294   28.1724    6.2638 C   0  0  0  0  0  0  0  0  0  0  0  0
   -4.3279   28.5269    6.3161 C   0  0  0  0  0  0  0  0  0  0  0  0
   -4.8220   29.5949    7.1161 C   0  0  0  0  0  0  0  0  0  0  0  0
   -6.1806   29.9455    7.1908 C   0  0  0  0  0  0  0  0  0  0  0  0
   -7.0942   29.1989    6.4611 C   0  0  0  0  0  0  0  0  0  0  0  0
   -6.6495   28.1472    5.6611 C   0  0  0  0  0  0  0  0  0  0  0  0
   -5.2806   27.7930    5.5533 C   0  0  0  0  0  0  0  0  0  0  0  0
   -6.6295   31.0795    8.0790 C   0  0  0  0  0  0  0  0  0  0  0  0
   -6.8082   30.6945    9.3735 F   0  0  0  0  0  0  0  0  0  0  0  0
   -7.8182   31.6084    7.6788 F   0  0  0  0  0  0  0  0  0  0  0  0
   -5.7493   32.1181    8.1176 F   0  0  0  0  0  0  0  0  0  0  0  0
   -5.8259   25.9329    3.8596 C   0  0  0  0  0  0  0  0  0  0  0  0
   -6.3504   24.8473    4.6272 O   0  0  0  0  0  0  0  0  0  0  0  0
   -5.9445   24.8709    5.5110 H   0  0  0  0  0  0  0  0  0  0  0  0
   -5.2867   25.3649    2.5346 C   0  0  0  0  0  0  0  0  0  0  0  0
   -5.0080   23.8482    2.5864 C   0  0  0  0  0  0  0  0  0  0  0  0
   -6.0569   22.9426    2.0716 N   0  0  0  0  0  0  0  0  0  0  0  0
   -5.8710   22.5222    0.6737 C   0  0  0  0  0  0  0  0  0  0  0  0
   -7.1328   22.7046   -0.1839 C   0  0  0  0  0  0  0  0  0  0  0  0
   -7.0091   25.2063   -0.7000 C   0  0  0  0  0  0  0  0  0  0  0  0
   -7.7772   24.0848   -0.0184 C   0  0  0  0  0  0  0  0  0  0  0  0
   -6.2681   21.7901    2.9687 C   0  0  0  0  0  0  0  0  0  0  0  0
   -7.7611   21.5415    3.2324 C   0  0  0  0  0  0  0  0  0  0  0  0
   -8.1603   21.7717    4.6936 C   0  0  0  0  0  0  0  0  0  0  0  0
   -9.4905   22.4900    4.8589 C   0  0  0  0  0  0  0  0  0  0  0  0
 29 30  1  0  0  0
 30 28  1  0  0  0
 28 27  1  0  0  0
 27 26  1  0  0  0
 26 31  1  0  0  0
 31 32  1  0  0  0
 32 33  1  0  0  0
 33 34  1  0  0  0
 26 25  1  0  0  0
 25 24  1  0  0  0
 24 21  1  0  0  0
 21 22  1  0  0  0
 21  1  1  0  0  0
  1  2  2  0  0  0
  2  3  1  0  0  0
  3  4  2  0  0  0
  4  5  1  0  0  0
  4  6  1  0  0  0
  6  7  2  0  0  0
  7  8  1  0  0  0
  7  9  1  0  0  0
  9 10  2  0  0  0
 10 11  1  0  0  0
 11 12  2  0  0  0
 12 13  1  0  0  0
 13 17  1  0  0  0
 17 18  1  0  0  0
 17 19  1  0  0  0
 17 20  1  0  0  0
 13 14  2  0  0  0
 14 15  1  0  0  0
 15 16  2  0  0  0
 16  1  1  0  0  0
 10  3  1  0  0  0
 16 11  1  0  0  0
 22 23  1  0  0  0
M  END
> <minimizedAffinity>
-9.53075

$$$$
OCNT-2328587


 39 42  0  0  0  0  0  0  0  0999 V2000
   -2.6357   30.4826    7.7888 C   0  0  0  0  0  0  0  0  0  0  0  0
   -3.1418   31.9106    8.0475 C   0  0  0  0  0  0  0  0  0  0  0  0
   -2.2406   32.9046    7.6720 O   0  0  0  0  0  0  0  0  0  0  0  0
   -4.3653   32.2059    8.5475 C   0  0  0  0  0  0  0  0  0  0  0  0
   -5.3101   31.0956    8.8582 C   0  0  0  0  0  0  0  0  0  0  0  0
   -6.3567   31.3124    9.4824 O   0  0  0  0  0  0  0  0  0  0  0  0
   -4.9639   29.6722    8.3911 C   0  0  0  0  0  0  0  0  0  0  0  0
   -5.6939   28.7640    9.2347 O   0  0  0  0  0  0  0  0  0  0  0  0
   -5.3931   29.3654    6.9742 C   0  0  0  0  0  0  0  0  0  0  0  0
   -6.3935   30.1717    6.4641 O   0  0  0  0  0  0  0  0  0  0  0  0
   -4.8076   28.3649    6.2794 C   0  0  0  0  0  0  0  0  0  0  0  0
   -5.2295   28.0791    4.8785 C   0  0  0  0  0  0  0  0  0  0  0  0
   -6.2115   28.6375    4.3871 O   0  0  0  0  0  0  0  0  0  0  0  0
   -4.4597   27.0845    4.0880 C   0  0  0  0  0  0  0  0  0  0  0  0
   -3.2159   26.6065    4.5498 C   0  0  0  0  0  0  0  0  0  0  0  0
   -2.5191   25.6793    3.7514 C   0  0  0  0  0  0  0  0  0  0  0  0
   -0.9767   25.0453    4.2104 Cl  0  0  0  0  0  0  0  0  0  0  0  0
   -3.0539   25.2275    2.5404 C   0  0  0  0  0  0  0  0  0  0  0  0
   -4.2836   25.7034    2.0961 C   0  0  0  0  0  0  0  0  0  0  0  0
   -4.9782   26.6322    2.8623 C   0  0  0  0  0  0  0  0  0  0  0  0
   -6.1714   27.0578    2.3433 O   0  0  0  0  0  0  0  0  0  0  0  0
   -2.6402   27.1411    5.8368 C   0  0  0  0  0  0  0  0  0  0  0  0
   -1.8882   28.2973    5.4984 O   0  0  0  0  0  0  0  0  0  0  0  0
   -3.7428   27.4644    6.8667 C   0  0  0  0  0  0  0  0  0  0  0  0
   -3.1455   27.9546    8.2100 C   0  0  0  0  0  0  0  0  0  0  0  0
   -3.4662   29.4222    8.5804 C   0  0  0  0  0  0  0  0  0  0  0  0
   -2.6258   33.7931    7.8551 H   0  0  0  0  0  0  0  0  0  0  0  0
   -6.5792   29.1690    9.3455 H   0  0  0  0  0  0  0  0  0  0  0  0
   -6.6388   29.8374    5.5705 H   0  0  0  0  0  0  0  0  0  0  0  0
   -6.5228   27.7719    2.9191 H   0  0  0  0  0  0  0  0  0  0  0  0
   -1.3365   28.5293    6.2710 H   0  0  0  0  0  0  0  0  0  0  0  0
   -4.7439   33.6387    8.7544 C   0  0  0  0  0  0  0  0  0  0  0  0
   -5.2148   34.3250    7.6853 N   0  0  0  0  0  0  0  0  0  0  0  0
   -4.6368   34.1867    9.8499 O   0  0  0  0  0  0  0  0  0  0  0  0
   -5.4767   35.2941    7.7957 H   0  0  0  0  0  0  0  0  0  0  0  0
   -5.3287   33.8861    6.7728 H   0  0  0  0  0  0  0  0  0  0  0  0
   -0.3846   30.4560    6.7688 C   0  0  0  0  0  0  0  0  0  0  0  0
   -1.1852   30.2088    7.9758 N   0  0  0  0  0  0  0  0  0  0  0  0
   -0.5826   30.9143    9.1098 C   0  0  0  0  0  0  0  0  0  0  0  0
 37 38  1  0  0  0
 38 39  1  0  0  0
 38  1  1  0  0  0
  1  2  1  0  0  0
  2  3  1  0  0  0
  2  4  2  0  0  0
  4 32  1  0  0  0
 32 33  1  0  0  0
 32 34  2  0  0  0
  4  5  1  0  0  0
  5  6  2  0  0  0
  5  7  1  0  0  0
  7  8  1  0  0  0
  7  9  1  0  0  0
  9 10  1  0  0  0
  9 11  2  0  0  0
 11 12  1  0  0  0
 12 13  2  0  0  0
 12 14  1  0  0  0
 14 15  1  0  0  0
 15 16  2  0  0  0
 16 17  1  0  0  0
 16 18  1  0  0  0
 18 19  2  0  0  0
 19 20  1  0  0  0
 20 21  1  0  0  0
 15 22  1  0  0  0
 22 23  1  0  0  0
 22 24  1  0  0  0
 24 25  1  0  0  0
 25 26  1  0  0  0
 26  1  1  0  0  0
 26  7  1  0  0  0
 24 11  1  0  0  0
 20 14  2  0  0  0
  3 27  1  0  0  0
 33 35  1  0  0  0
 33 36  1  0  0  0
  8 28  1  0  0  0
 10 29  1  0  0  0
 21 30  1  0  0  0
 23 31  1  0  0  0
M  END
> <minimizedAffinity>
-8.39648

$$$$
OCNT-2328597


 15 15  0  0  0  0  0  0  0  0999 V2000
   -2.7910   30.7335    9.5991 O   0  0  0  0  0  0  0  0  0  0  0  0
   -3.3322   29.8578    8.5138 P   0  0  0  0  0  0  0  0  0  0  0  0
   -4.4508   28.7707    9.0042 N   0  0  0  0  0  0  0  0  0  0  0  0
   -5.8509   29.1023    8.7801 C   0  0  0  0  0  0  0  0  0  0  0  0
   -6.0785   30.6019    8.9381 C   0  0  0  0  0  0  0  0  0  0  0  0
   -5.3008   31.4077    7.8958 C   0  0  0  0  0  0  0  0  0  0  0  0
   -4.1447   30.7296    7.4264 O   0  0  0  0  0  0  0  0  0  0  0  0
   -4.2674   27.8288    8.6855 H   0  0  0  0  0  0  0  0  0  0  0  0
   -2.2292   28.9850    7.6846 N   0  0  0  0  0  0  0  0  0  0  0  0
   -2.6632   28.0617    6.6311 C   0  0  0  0  0  0  0  0  0  0  0  0
   -2.0169   26.6766    6.7523 C   0  0  0  0  0  0  0  0  0  0  0  0
   -1.0506   26.2755    5.3085 Cl  0  0  0  0  0  0  0  0  0  0  0  0
   -0.9716   28.5586    8.3090 C   0  0  0  0  0  0  0  0  0  0  0  0
    0.2178   29.4904    8.0469 C   0  0  0  0  0  0  0  0  0  0  0  0
    0.7160   29.3769    6.3356 Cl  0  0  0  0  0  0  0  0  0  0  0  0
  1  2  2  0  0  0
  2  9  1  0  0  0
  9 10  1  0  0  0
 10 11  1  0  0  0
 11 12  1  0  0  0
  9 13  1  0  0  0
 13 14  1  0  0  0
 14 15  1  0  0  0
  2  3  1  0  0  0
  3  4  1  0  0  0
  4  5  1  0  0  0
  5  6  1  0  0  0
  6  7  1  0  0  0
  7  2  1  0  0  0
  3  8  1  0  0  0
M  END
> <minimizedAffinity>
-5.56910

$$$$
OCNT-2328599


 17 19  0  0  0  0  0  0  0  0999 V2000
   -7.6141   23.7169   -0.7031 C   0  0  0  0  0  0  0  0  0  0  0  0
   -6.9164   24.8937   -0.4727 C   0  0  0  0  0  0  0  0  0  0  0  0
   -5.9366   24.9405    0.5224 C   0  0  0  0  0  0  0  0  0  0  0  0
   -5.6252   23.8118    1.3174 C   0  0  0  0  0  0  0  0  0  0  0  0
   -6.3530   22.6191    1.0685 C   0  0  0  0  0  0  0  0  0  0  0  0
   -7.3336   22.5876    0.0630 C   0  0  0  0  0  0  0  0  0  0  0  0
   -6.0981   21.4690    1.8295 C   0  0  0  0  0  0  0  0  0  0  0  0
   -5.1406   21.4768    2.8387 C   0  0  0  0  0  0  0  0  0  0  0  0
   -4.4205   22.6366    3.0974 C   0  0  0  0  0  0  0  0  0  0  0  0
   -4.6393   23.8061    2.3458 C   0  0  0  0  0  0  0  0  0  0  0  0
   -3.8235   25.0285    2.7196 C   0  0  0  0  0  0  0  0  0  0  0  0
   -4.6531   26.0821    3.4180 C   0  0  0  0  0  0  0  0  0  0  0  0
   -5.4259   25.7765    4.4306 N   0  0  0  0  0  0  0  0  0  0  0  0
   -6.0555   27.0735    4.8098 C   0  0  0  0  0  0  0  0  0  0  0  0
   -5.7747   28.0430    3.6584 C   0  0  0  0  0  0  0  0  0  0  0  0
   -4.6489   27.4003    3.0216 N   0  0  0  0  0  0  0  0  0  0  0  0
   -4.5320   27.5650    2.0260 H   0  0  0  0  0  0  0  0  0  0  0  0
  1  2  2  0  0  0
  2  3  1  0  0  0
  3  4  2  0  0  0
  4  5  1  0  0  0
  5  6  2  0  0  0
  5  7  1  0  0  0
  7  8  2  0  0  0
  8  9  1  0  0  0
  9 10  2  0  0  0
 10 11  1  0  0  0
 11 12  1  0  0  0
 12 13  2  0  0  0
 13 14  1  0  0  0
 14 15  1  0  0  0
 15 16  1  0  0  0
  6  1  1  0  0  0
 16 12  1  0  0  0
 10  4  1  0  0  0
 16 17  1  0  0  0
M  END
> <minimizedAffinity>
-8.28531

$$$$
OCNT-2328617


 16 17  0  0  0  0  0  0  0  0999 V2000
   -5.7587   27.2933    3.0406 C   0  0  0  0  0  0  0  0  0  0  0  0
   -5.7945   25.8533    2.6003 C   0  0  0  0  0  0  0  0  0  0  0  0
   -5.7890   24.7782    3.5250 C   0  0  0  0  0  0  0  0  0  0  0  0
   -5.7416   25.0431    5.0110 C   0  0  0  0  0  0  0  0  0  0  0  0
   -5.8247   23.4398    3.0429 C   0  0  0  0  0  0  0  0  0  0  0  0
   -5.8602   23.2216    1.6495 C   0  0  0  0  0  0  0  0  0  0  0  0
   -5.8657   24.2813    0.7499 C   0  0  0  0  0  0  0  0  0  0  0  0
   -5.8326   25.5870    1.2225 C   0  0  0  0  0  0  0  0  0  0  0  0
   -5.8050   22.2318    3.9824 C   0  0  0  0  0  0  0  0  0  0  0  0
   -4.8344   21.1444    3.5177 C   0  0  0  0  0  0  0  0  0  0  0  0
   -7.2330   21.7710    4.0935 C   0  0  0  0  0  0  0  0  0  0  0  0
   -7.8805   20.7893    3.3670 C   0  0  0  0  0  0  0  0  0  0  0  0
   -9.1569   20.7568    3.8528 N   0  0  0  0  0  0  0  0  0  0  0  0
   -9.2525   21.7098    4.8245 C   0  0  0  0  0  0  0  0  0  0  0  0
   -8.1150   22.3428    4.9905 N   0  0  0  0  0  0  0  0  0  0  0  0
   -9.8990   20.1402    3.5531 H   0  0  0  0  0  0  0  0  0  0  0  0
  1  2  1  0  0  0
  2  3  2  0  0  0
  3  4  1  0  0  0
  3  5  1  0  0  0
  5  9  1  0  0  0
  9 10  1  0  0  0
  9 11  1  0  0  0
 11 12  2  0  0  0
 12 13  1  0  0  0
 13 14  1  0  0  0
 14 15  2  0  0  0
  5  6  2  0  0  0
  6  7  1  0  0  0
  7  8  2  0  0  0
  8  2  1  0  0  0
 15 11  1  0  0  0
 13 16  1  0  0  0
M  END
> <minimizedAffinity>
-6.75912

$$$$
OCNT-2328630


 20 19  0  0  0  0  0  0  0  0999 V2000
   -5.8939   25.8648    2.9726 C   0  0  0  0  0  0  0  0  0  0  0  0
   -4.6946   25.2330    2.2570 C   0  0  0  0  0  0  0  0  0  0  0  0
   -4.9211   24.8376    0.7941 C   0  0  0  0  0  0  0  0  0  0  0  0
   -6.2288   25.3327    0.1680 C   0  0  0  0  0  0  0  0  0  0  0  0
   -7.2327   24.2411   -0.2167 C   0  0  0  0  0  0  0  0  0  0  0  0
   -6.7953   22.8059    0.0813 C   0  0  0  0  0  0  0  0  0  0  0  0
   -7.2352   22.2219    1.4292 C   0  0  0  0  0  0  0  0  0  0  0  0
   -6.3186   21.1235    1.9825 C   0  0  0  0  0  0  0  0  0  0  0  0
   -5.5899   22.2046    4.1777 C   0  0  0  0  0  0  0  0  0  0  0  0
   -5.1520   21.6012    2.8510 C   0  0  0  0  0  0  0  0  0  0  0  0
   -5.5240   27.0925    3.8089 C   0  0  0  0  0  0  0  0  0  0  0  0
   -5.8850   28.4214    3.1345 C   0  0  0  0  0  0  0  0  0  0  0  0
   -6.2178   29.5379    4.1281 C   0  0  0  0  0  0  0  0  0  0  0  0
   -6.6892   29.0178    5.4901 C   0  0  0  0  0  0  0  0  0  0  0  0
   -6.3731   29.9037    6.6965 C   0  0  0  0  0  0  0  0  0  0  0  0
   -5.3087   29.4315    7.6936 C   0  0  0  0  0  0  0  0  0  0  0  0
   -3.8419   29.7604    7.3538 N   0  0  0  0  0  0  0  0  0  0  0  0
   -3.1063   29.9893    8.6850 C   0  0  0  0  0  0  0  0  0  0  0  0
   -3.1438   28.6202    6.6249 C   0  0  0  0  0  0  0  0  0  0  0  0
   -3.7106   31.0436    6.5430 C   0  0  0  0  0  0  0  0  0  0  0  0
  9 10  1  0  0  0
 10  8  1  0  0  0
  8  7  1  0  0  0
  7  6  1  0  0  0
  6  5  1  0  0  0
  5  4  1  0  0  0
  4  3  1  0  0  0
  3  2  1  0  0  0
  2  1  1  0  0  0
  1 11  1  0  0  0
 11 12  1  0  0  0
 12 13  1  0  0  0
 13 14  1  0  0  0
 14 15  1  0  0  0
 15 16  1  0  0  0
 16 17  1  0  0  0
 17 18  1  0  0  0
 17 19  1  0  0  0
 17 20  1  0  0  0
M  CHG 1  17   1
M  END
> <minimizedAffinity>
-6.10573

$$$$
OCNT-2328635


 22 22  0  0  0  0  0  0  0  0999 V2000
   -5.4172   30.1655    6.6486 N   0  0  0  0  0  0  0  0  0  0  0  0
   -5.1554   28.9082    6.7902 C   0  0  0  0  0  0  0  0  0  0  0  0
   -4.0201   28.3739    7.3363 N   0  0  0  0  0  0  0  0  0  0  0  0
   -3.4806   29.1371    7.7618 H   0  0  0  0  0  0  0  0  0  0  0  0
   -4.2367   27.7054    8.0660 H   0  0  0  0  0  0  0  0  0  0  0  0
   -4.3594   31.3144    8.3123 N   0  0  0  0  0  0  0  0  0  0  0  0
   -4.5850   31.1648    7.0607 C   0  0  0  0  0  0  0  0  0  0  0  0
   -4.0858   31.9009    6.0371 N   0  0  0  0  0  0  0  0  0  0  0  0
   -4.2066   31.4064    5.1613 H   0  0  0  0  0  0  0  0  0  0  0  0
   -3.1422   32.2246    6.1723 H   0  0  0  0  0  0  0  0  0  0  0  0
   -4.3633   33.5285    9.4082 C   0  0  0  0  0  0  0  0  0  0  0  0
   -3.5248   32.3615    8.9029 C   0  0  0  0  0  0  0  0  0  0  0  0
   -2.5305   31.8366    9.9309 C   0  0  0  0  0  0  0  0  0  0  0  0
   -5.9596   27.8750    6.3834 N   0  0  0  0  0  0  0  0  0  0  0  0
   -6.3609   27.3641    7.1571 H   0  0  0  0  0  0  0  0  0  0  0  0
   -5.9377   27.1663    5.1683 C   0  0  0  0  0  0  0  0  0  0  0  0
   -5.7995   27.8864    3.9689 C   0  0  0  0  0  0  0  0  0  0  0  0
   -5.7463   27.2349    2.7319 C   0  0  0  0  0  0  0  0  0  0  0  0
   -5.8175   25.8470    2.6803 C   0  0  0  0  0  0  0  0  0  0  0  0
   -5.7509   25.0407    1.1627 Cl  0  0  0  0  0  0  0  0  0  0  0  0
   -5.9341   25.1103    3.8537 C   0  0  0  0  0  0  0  0  0  0  0  0
   -5.9874   25.7690    5.0879 C   0  0  0  0  0  0  0  0  0  0  0  0
 11 12  1  0  0  0
 12 13  1  0  0  0
 12  6  1  0  0  0
  6  7  2  0  0  0
  7  8  1  0  0  0
  7  1  1  0  0  0
  1  2  2  0  0  0
  2  3  1  0  0  0
  2 14  1  0  0  0
 14 16  1  0  0  0
 16 17  1  0  0  0
 17 18  2  0  0  0
 18 19  1  0  0  0
 19 20  1  0  0  0
 19 21  2  0  0  0
 21 22  1  0  0  0
 22 16  2  0  0  0
  8  9  1  0  0  0
  8 10  1  0  0  0
  3  4  1  0  0  0
  3  5  1  0  0  0
 14 15  1  0  0  0
M  END
> <minimizedAffinity>
-7.57920

$$$$
OCNT-2328651


 22 23  0  0  0  0  0  0  0  0999 V2000
   -4.6262   29.1404    6.9996 C   0  0  0  0  0  0  0  0  0  0  0  0
   -5.6583   28.6364    7.4342 O   0  0  0  0  0  0  0  0  0  0  0  0
   -4.0839   28.8487    5.7497 N   0  0  0  0  0  0  0  0  0  0  0  0
   -3.6070   29.6272    5.3180 H   0  0  0  0  0  0  0  0  0  0  0  0
   -4.5308   27.8321    4.8679 C   0  0  0  0  0  0  0  0  0  0  0  0
   -5.5252   28.1800    3.9190 C   0  0  0  0  0  0  0  0  0  0  0  0
   -6.1231   29.5610    3.8434 C   0  0  0  0  0  0  0  0  0  0  0  0
   -6.0107   27.2065    3.0300 C   0  0  0  0  0  0  0  0  0  0  0  0
   -5.5210   25.9072    3.0639 C   0  0  0  0  0  0  0  0  0  0  0  0
   -4.5168   25.5737    3.9656 C   0  0  0  0  0  0  0  0  0  0  0  0
   -3.9854   26.5294    4.8526 C   0  0  0  0  0  0  0  0  0  0  0  0
   -2.8248   26.0817    5.7012 C   0  0  0  0  0  0  0  0  0  0  0  0
   -2.7824   29.7476    8.6539 N   0  0  0  0  0  0  0  0  0  0  0  0
   -2.2441   30.8552    9.4618 C   0  0  0  0  0  0  0  0  0  0  0  0
   -1.6773   32.0118    8.6310 C   0  0  0  0  0  0  0  0  0  0  0  0
   -2.6712   32.4997    7.5814 C   0  0  0  0  0  0  0  0  0  0  0  0
   -3.2769   31.3423    6.7877 C   0  0  0  0  0  0  0  0  0  0  0  0
   -3.8342   30.2660    7.7354 C   0  0  0  0  0  0  0  0  0  0  0  0
   -1.7251   28.9730    7.9811 C   0  0  0  0  0  0  0  0  0  0  0  0
   -0.3922   28.9292    8.7483 C   0  0  0  0  0  0  0  0  0  0  0  0
    0.6003   29.3297    6.4130 C   0  0  0  0  0  0  0  0  0  0  0  0
    0.8542   29.2273    7.9082 C   0  0  0  0  0  0  0  0  0  0  0  0
 21 22  1  0  0  0
 22 20  1  0  0  0
 20 19  1  0  0  0
 19 13  1  0  0  0
 13 14  1  0  0  0
 14 15  1  0  0  0
 15 16  1  0  0  0
 16 17  1  0  0  0
 17 18  1  0  0  0
 18  1  1  0  0  0
  1  2  2  0  0  0
  1  3  1  0  0  0
  3  5  1  0  0  0
  5  6  2  0  0  0
  6  7  1  0  0  0
  6  8  1  0  0  0
  8  9  2  0  0  0
  9 10  1  0  0  0
 10 11  2  0  0  0
 11 12  1  0  0  0
 18 13  1  0  0  0
 11  5  1  0  0  0
  3  4  1  0  0  0
M  END
> <minimizedAffinity>
-8.18104

$$$$
OCNT-2328652


 36 38  0  0  0  0  0  0  0  0999 V2000
   -2.6961   26.9519    5.8272 C   0  0  0  0  0  0  0  0  0  0  0  0
   -3.4351   27.9407    6.3048 N   0  0  0  0  0  0  0  0  0  0  0  0
   -4.6347   28.1053    5.7607 C   0  0  0  0  0  0  0  0  0  0  0  0
   -5.1238   27.3253    4.8041 N   0  0  0  0  0  0  0  0  0  0  0  0
   -4.3157   26.3433    4.3943 C   0  0  0  0  0  0  0  0  0  0  0  0
   -3.0938   26.1275    4.8774 N   0  0  0  0  0  0  0  0  0  0  0  0
   -4.8200   25.4172    3.3480 C   0  0  0  0  0  0  0  0  0  0  0  0
   -5.3235   25.8771    2.1302 C   0  0  0  0  0  0  0  0  0  0  0  0
   -5.7850   24.9633    1.1859 C   0  0  0  0  0  0  0  0  0  0  0  0
   -5.7407   23.6042    1.4724 C   0  0  0  0  0  0  0  0  0  0  0  0
   -5.2400   23.1889    2.7048 C   0  0  0  0  0  0  0  0  0  0  0  0
   -4.7807   24.0821    3.6278 N   0  0  0  0  0  0  0  0  0  0  0  0
   -5.1732   21.6981    3.0119 C   0  0  0  0  0  0  0  0  0  0  0  0
   -5.4908   20.9271    1.9286 F   0  0  0  0  0  0  0  0  0  0  0  0
   -3.9238   21.2977    3.3869 F   0  0  0  0  0  0  0  0  0  0  0  0
   -6.0128   21.2923    4.0061 F   0  0  0  0  0  0  0  0  0  0  0  0
   -1.4528   26.8029    6.3950 N   0  0  0  0  0  0  0  0  0  0  0  0
   -1.0876   25.8700    6.2564 H   0  0  0  0  0  0  0  0  0  0  0  0
   -0.4859   27.8916    6.3156 C   0  0  0  0  0  0  0  0  0  0  0  0
    0.9705   29.0209    8.1145 C   0  0  0  0  0  0  0  0  0  0  0  0
   -0.4482   28.7733    7.5933 C   0  0  0  0  0  0  0  0  0  0  0  0
   -1.1162   30.1208    7.2982 C   0  0  0  0  0  0  0  0  0  0  0  0
   -1.2143   28.1470    8.6354 O   0  0  0  0  0  0  0  0  0  0  0  0
   -0.6898   27.3919    8.9550 H   0  0  0  0  0  0  0  0  0  0  0  0
   -5.4964   29.1155    6.1890 N   0  0  0  0  0  0  0  0  0  0  0  0
   -6.0692   29.4138    5.4121 H   0  0  0  0  0  0  0  0  0  0  0  0
   -5.6159   29.8415    7.3802 C   0  0  0  0  0  0  0  0  0  0  0  0
   -6.2979   29.3859    8.5051 C   0  0  0  0  0  0  0  0  0  0  0  0
   -6.3849   30.2010    9.6222 C   0  0  0  0  0  0  0  0  0  0  0  0
   -5.8504   31.4363    9.6959 N   0  0  0  0  0  0  0  0  0  0  0  0
   -5.1869   31.8966    8.6016 C   0  0  0  0  0  0  0  0  0  0  0  0
   -5.0657   31.1282    7.4392 C   0  0  0  0  0  0  0  0  0  0  0  0
   -4.5876   33.2961    8.6176 C   0  0  0  0  0  0  0  0  0  0  0  0
   -4.6527   33.8750    9.8548 F   0  0  0  0  0  0  0  0  0  0  0  0
   -3.2624   33.2987    8.2898 F   0  0  0  0  0  0  0  0  0  0  0  0
   -5.1864   34.1784    7.7694 F   0  0  0  0  0  0  0  0  0  0  0  0
 20 21  1  0  0  0
 21 22  1  0  0  0
 21 23  1  0  0  0
 21 19  1  0  0  0
 19 17  1  0  0  0
 17  1  1  0  0  0
  1  2  1  0  0  0
  2  3  2  0  0  0
  3 25  1  0  0  0
 25 27  1  0  0  0
 27 28  2  0  0  0
 28 29  1  0  0  0
 29 30  2  0  0  0
 30 31  1  0  0  0
 31 33  1  0  0  0
 33 34  1  0  0  0
 33 35  1  0  0  0
 33 36  1  0  0  0
 31 32  2  0  0  0
  3  4  1  0  0  0
  4  5  2  0  0  0
  5  7  1  0  0  0
  7  8  1  0  0  0
  8  9  2  0  0  0
  9 10  1  0  0  0
 10 11  2  0  0  0
 11 13  1  0  0  0
 13 14  1  0  0  0
 13 15  1  0  0  0
 13 16  1  0  0  0
 11 12  1  0  0  0
  5  6  1  0  0  0
  6  1  2  0  0  0
 32 27  1  0  0  0
 12  7  2  0  0  0
 23 24  1  0  0  0
 17 18  1  0  0  0
 25 26  1  0  0  0
M  END
> <minimizedAffinity>
-10.48854

$$$$
OCNT-2328659


 21 23  0  0  0  0  0  0  0  0999 V2000
   -4.1330   29.4770    7.0730 C   0  0  0  0  0  0  0  0  0  0  0  0
   -3.2505   30.4245    7.4671 C   0  0  0  0  0  0  0  0  0  0  0  0
   -1.8238   30.0253    7.6362 C   0  0  0  0  0  0  0  0  0  0  0  0
   -1.0714   30.4105    8.7664 C   0  0  0  0  0  0  0  0  0  0  0  0
    0.2809   30.0124    8.8528 C   0  0  0  0  0  0  0  0  0  0  0  0
    0.8794   29.2497    7.8511 C   0  0  0  0  0  0  0  0  0  0  0  0
    0.1439   28.8851    6.7322 C   0  0  0  0  0  0  0  0  0  0  0  0
   -1.1910   29.2759    6.6231 C   0  0  0  0  0  0  0  0  0  0  0  0
   -1.5884   31.3083    9.8798 C   0  0  0  0  0  0  0  0  0  0  0  0
   -3.0042   31.3378   10.1074 O   0  0  0  0  0  0  0  0  0  0  0  0
   -3.6050   32.1656    9.1941 C   0  0  0  0  0  0  0  0  0  0  0  0
   -3.7337   31.7640    7.8610 C   0  0  0  0  0  0  0  0  0  0  0  0
   -4.3074   32.6494    6.9406 C   0  0  0  0  0  0  0  0  0  0  0  0
   -4.7892   33.8905    7.3659 C   0  0  0  0  0  0  0  0  0  0  0  0
   -4.6995   34.2547    8.7110 C   0  0  0  0  0  0  0  0  0  0  0  0
   -4.1086   33.3891    9.6309 C   0  0  0  0  0  0  0  0  0  0  0  0
   -5.6340   29.5732    6.9460 C   0  0  0  0  0  0  0  0  0  0  0  0
   -6.3811   28.9836    8.1589 C   0  0  0  0  0  0  0  0  0  0  0  0
   -6.1070   28.4649   10.4960 C   0  0  0  0  0  0  0  0  0  0  0  0
   -5.9574   29.5047    9.4750 N   0  0  0  0  0  0  0  0  0  0  0  0
   -6.7190   30.6932    9.8634 C   0  0  0  0  0  0  0  0  0  0  0  0
 19 20  1  0  0  0
 20 21  1  0  0  0
 20 18  1  0  0  0
 18 17  1  0  0  0
 17  1  1  0  0  0
  1  2  2  0  0  0
  2  3  1  0  0  0
  3  4  1  0  0  0
  4  5  2  0  0  0
  5  6  1  0  0  0
  6  7  2  0  0  0
  7  8  1  0  0  0
  4  9  1  0  0  0
  9 10  1  0  0  0
 10 11  1  0  0  0
 11 12  1  0  0  0
 12 13  2  0  0  0
 13 14  1  0  0  0
 14 15  2  0  0  0
 15 16  1  0  0  0
 12  2  1  0  0  0
  8  3  2  0  0  0
 16 11  2  0  0  0
M  END
> <minimizedAffinity>
-8.55668

$$$$
OCNT-2328663


 29 32  0  0  0  0  0  0  0  0999 V2000
   -1.4084   30.1469    9.0561 C   0  0  0  0  0  0  0  0  0  0  0  0
   -1.8605   29.2305    7.9580 C   0  0  0  0  0  0  0  0  0  0  0  0
   -3.1261   28.9742    7.5744 C   0  0  0  0  0  0  0  0  0  0  0  0
   -3.4867   28.0739    6.5906 O   0  0  0  0  0  0  0  0  0  0  0  0
   -2.5139   27.3834    5.9195 C   0  0  0  0  0  0  0  0  0  0  0  0
   -1.1622   27.5825    6.1767 C   0  0  0  0  0  0  0  0  0  0  0  0
   -0.1852   26.8956    5.4433 C   0  0  0  0  0  0  0  0  0  0  0  0
   -0.5650   26.0027    4.4419 C   0  0  0  0  0  0  0  0  0  0  0  0
   -1.9180   25.7903    4.1826 C   0  0  0  0  0  0  0  0  0  0  0  0
   -2.8940   26.4751    4.9248 C   0  0  0  0  0  0  0  0  0  0  0  0
   -0.7702   28.5274    7.2341 C   0  0  0  0  0  0  0  0  0  0  0  0
    0.4117   28.7240    7.4971 O   0  0  0  0  0  0  0  0  0  0  0  0
   -4.3008   29.6255    8.1779 C   0  0  0  0  0  0  0  0  0  0  0  0
   -4.9805   29.0352    9.2519 C   0  0  0  0  0  0  0  0  0  0  0  0
   -6.0832   29.6699    9.8279 C   0  0  0  0  0  0  0  0  0  0  0  0
   -6.5076   30.9055    9.3409 C   0  0  0  0  0  0  0  0  0  0  0  0
   -5.8261   31.5097    8.2858 C   0  0  0  0  0  0  0  0  0  0  0  0
   -4.7241   30.8764    7.7081 C   0  0  0  0  0  0  0  0  0  0  0  0
   -4.3274   26.2044    4.6799 C   0  0  0  0  0  0  0  0  0  0  0  0
   -4.9910   25.3877    5.2992 O   0  0  0  0  0  0  0  0  0  0  0  0
   -4.7637   27.0159    3.6863 O   0  0  0  0  0  0  0  0  0  0  0  0
   -5.4194   26.3480    2.5935 C   0  0  0  0  0  0  0  0  0  0  0  0
   -4.4750   25.3739    1.8614 C   0  0  0  0  0  0  0  0  0  0  0  0
   -5.1502   24.5616    0.8322 N   0  0  0  0  0  0  0  0  0  0  0  0
   -6.2355   25.3205    0.1969 C   0  0  0  0  0  0  0  0  0  0  0  0
   -7.0918   24.4296   -0.7035 C   0  0  0  0  0  0  0  0  0  0  0  0
   -7.7581   23.3016    0.0809 C   0  0  0  0  0  0  0  0  0  0  0  0
   -7.0626   23.0310    1.4137 C   0  0  0  0  0  0  0  0  0  0  0  0
   -5.5500   23.2313    1.3113 C   0  0  0  0  0  0  0  0  0  0  0  0
  1  2  1  0  0  0
  2  3  2  0  0  0
  3 13  1  0  0  0
 13 14  2  0  0  0
 14 15  1  0  0  0
 15 16  2  0  0  0
 16 17  1  0  0  0
 17 18  2  0  0  0
  3  4  1  0  0  0
  4  5  1  0  0  0
  5  6  1  0  0  0
  6  7  2  0  0  0
  7  8  1  0  0  0
  8  9  2  0  0  0
  9 10  1  0  0  0
 10 19  1  0  0  0
 19 20  2  0  0  0
 19 21  1  0  0  0
 21 22  1  0  0  0
 22 23  1  0  0  0
 23 24  1  0  0  0
 24 25  1  0  0  0
 25 26  1  0  0  0
 26 27  1  0  0  0
 27 28  1  0  0  0
 28 29  1  0  0  0
  6 11  1  0  0  0
 11 12  2  0  0  0
 11  2  1  0  0  0
 18 13  1  0  0  0
 10  5  2  0  0  0
 29 24  1  0  0  0
M  END
> <minimizedAffinity>
-10.17567

$$$$
OCNT-2328666


 27 30  0  0  0  0  0  0  0  0999 V2000
   -5.1777   26.2549    3.3090 C   0  0  0  0  0  0  0  0  0  0  0  0
   -7.8988   22.5334   -0.6168 Cl  0  0  0  0  0  0  0  0  0  0  0  0
   -7.1256   23.5849    0.5031 C   0  0  0  0  0  0  0  0  0  0  0  0
   -6.5349   24.7607    0.0521 C   0  0  0  0  0  0  0  0  0  0  0  0
   -5.9076   25.6149    0.9615 C   0  0  0  0  0  0  0  0  0  0  0  0
   -5.8537   25.3006    2.3337 C   0  0  0  0  0  0  0  0  0  0  0  0
   -6.4718   24.1121    2.7653 C   0  0  0  0  0  0  0  0  0  0  0  0
   -6.5028   23.6562    4.4322 Cl  0  0  0  0  0  0  0  0  0  0  0  0
   -7.0999   23.2570    1.8551 C   0  0  0  0  0  0  0  0  0  0  0  0
   -5.7840   27.6608    3.1730 C   0  0  0  0  0  0  0  0  0  0  0  0
   -6.0986   28.2277    4.4728 N   0  0  0  0  0  0  0  0  0  0  0  0
   -6.5459   27.5441    5.5679 C   0  0  0  0  0  0  0  0  0  0  0  0
   -6.6615   28.4969    6.5535 C   0  0  0  0  0  0  0  0  0  0  0  0
   -6.2975   29.7320    6.0817 N   0  0  0  0  0  0  0  0  0  0  0  0
   -5.9799   29.5422    4.8207 C   0  0  0  0  0  0  0  0  0  0  0  0
   -3.7741   26.3483    3.0113 O   0  0  0  0  0  0  0  0  0  0  0  0
   -2.9864   25.4216    3.7614 C   0  0  0  0  0  0  0  0  0  0  0  0
   -1.8305   26.1311    4.3968 C   0  0  0  0  0  0  0  0  0  0  0  0
   -0.5309   26.0440    3.9425 C   0  0  0  0  0  0  0  0  0  0  0  0
    0.5562   26.9651    4.8676 S   0  0  0  0  0  0  0  0  0  0  0  0
   -0.6883   27.5361    5.9193 C   0  0  0  0  0  0  0  0  0  0  0  0
   -0.5719   28.4160    7.0195 C   0  0  0  0  0  0  0  0  0  0  0  0
    0.9461   29.0853    7.4971 Cl  0  0  0  0  0  0  0  0  0  0  0  0
   -1.7120   28.7645    7.7487 C   0  0  0  0  0  0  0  0  0  0  0  0
   -2.9513   28.2517    7.4007 C   0  0  0  0  0  0  0  0  0  0  0  0
   -3.0674   27.3782    6.3174 C   0  0  0  0  0  0  0  0  0  0  0  0
   -1.9325   27.0033    5.5505 C   0  0  0  0  0  0  0  0  0  0  0  0
  2  3  1  0  0  0
  3  4  1  0  0  0
  4  5  2  0  0  0
  5  6  1  0  0  0
  6  1  1  0  0  0
  1 10  1  0  0  0
 10 11  1  0  0  0
 11 12  1  0  0  0
 12 13  2  0  0  0
 13 14  1  0  0  0
 14 15  2  0  0  0
  1 16  1  0  0  0
 16 17  1  0  0  0
 17 18  1  0  0  0
 18 19  2  0  0  0
 19 20  1  0  0  0
 20 21  1  0  0  0
 21 22  2  0  0  0
 22 23  1  0  0  0
 22 24  1  0  0  0
 24 25  2  0  0  0
 25 26  1  0  0  0
 26 27  2  0  0  0
  6  7  2  0  0  0
  7  8  1  0  0  0
  7  9  1  0  0  0
  9  3  2  0  0  0
 15 11  1  0  0  0
 27 18  1  0  0  0
 27 21  1  0  0  0
M  END
> <minimizedAffinity>
-8.45847

$$$$
OCNT-2328670


 19 20  0  0  0  0  0  0  0  0999 V2000
   -3.0364   25.8931    3.2071 N   0  0  0  0  0  0  0  0  0  0  0  0
   -4.1845   25.6878    2.6545 C   0  0  0  0  0  0  0  0  0  0  0  0
   -2.3069   25.6783    2.5230 H   0  0  0  0  0  0  0  0  0  0  0  0
   -4.3451   25.2153    1.3789 N   0  0  0  0  0  0  0  0  0  0  0  0
   -3.5207   25.2486    0.7956 H   0  0  0  0  0  0  0  0  0  0  0  0
   -5.4360   24.5210    0.8293 C   0  0  0  0  0  0  0  0  0  0  0  0
   -6.2996   25.1880   -0.0520 C   0  0  0  0  0  0  0  0  0  0  0  0
   -7.3824   24.5264   -0.6381 C   0  0  0  0  0  0  0  0  0  0  0  0
   -7.6168   23.1844   -0.3516 C   0  0  0  0  0  0  0  0  0  0  0  0
   -6.7699   22.5060    0.5202 C   0  0  0  0  0  0  0  0  0  0  0  0
   -5.6874   23.1703    1.1038 C   0  0  0  0  0  0  0  0  0  0  0  0
   -5.4064   25.9292    3.2274 N   0  0  0  0  0  0  0  0  0  0  0  0
   -5.8881   25.0911    3.5203 H   0  0  0  0  0  0  0  0  0  0  0  0
   -5.8554   27.0783    3.9112 C   0  0  0  0  0  0  0  0  0  0  0  0
   -5.8319   28.3118    3.2359 C   0  0  0  0  0  0  0  0  0  0  0  0
   -6.2193   29.4974    3.8688 C   0  0  0  0  0  0  0  0  0  0  0  0
   -6.6226   29.4741    5.1995 C   0  0  0  0  0  0  0  0  0  0  0  0
   -6.6293   28.2687    5.8939 C   0  0  0  0  0  0  0  0  0  0  0  0
   -6.2401   27.0853    5.2558 C   0  0  0  0  0  0  0  0  0  0  0  0
  1  2  2  0  0  0
  2  4  1  0  0  0
  4  6  1  0  0  0
  6  7  2  0  0  0
  7  8  1  0  0  0
  8  9  2  0  0  0
  9 10  1  0  0  0
 10 11  2  0  0  0
  2 12  1  0  0  0
 12 14  1  0  0  0
 14 15  2  0  0  0
 15 16  1  0  0  0
 16 17  2  0  0  0
 17 18  1  0  0  0
 18 19  2  0  0  0
 11  6  1  0  0  0
 19 14  1  0  0  0
  1  3  1  0  0  0
  4  5  1  0  0  0
 12 13  1  0  0  0
M  END
> <minimizedAffinity>
-7.85589

$$$$
OCNT-2328671


 28 30  0  0  0  0  0  0  0  0999 V2000
   -2.9099   28.7689    7.4692 C   0  0  0  0  0  0  0  0  0  0  0  0
   -4.1358   28.5923    6.8082 C   0  0  0  0  0  0  0  0  0  0  0  0
   -5.1015   29.5856    6.8550 C   0  0  0  0  0  0  0  0  0  0  0  0
   -4.8870   30.7444    7.5320 N   0  0  0  0  0  0  0  0  0  0  0  0
   -3.7230   30.9538    8.1662 C   0  0  0  0  0  0  0  0  0  0  0  0
   -3.5403   32.1609    8.8403 C   0  0  0  0  0  0  0  0  0  0  0  0
   -2.3378   32.4368    9.5145 C   0  0  0  0  0  0  0  0  0  0  0  0
   -1.3102   31.5091    9.5168 C   0  0  0  0  0  0  0  0  0  0  0  0
   -1.4804   30.2997    8.8494 C   0  0  0  0  0  0  0  0  0  0  0  0
   -2.6815   29.9892    8.1658 C   0  0  0  0  0  0  0  0  0  0  0  0
   -6.4127   29.3822    6.1054 C   0  0  0  0  0  0  0  0  0  0  0  0
   -6.9052   28.1172    6.2399 F   0  0  0  0  0  0  0  0  0  0  0  0
   -6.3284   29.6113    4.7643 F   0  0  0  0  0  0  0  0  0  0  0  0
   -7.4043   30.2097    6.5536 F   0  0  0  0  0  0  0  0  0  0  0  0
   -4.6501   33.1800    8.8421 C   0  0  0  0  0  0  0  0  0  0  0  0
   -5.8700   32.6574    9.1497 F   0  0  0  0  0  0  0  0  0  0  0  0
   -4.7904   33.8398    7.6588 F   0  0  0  0  0  0  0  0  0  0  0  0
   -4.4498   34.1668    9.7703 F   0  0  0  0  0  0  0  0  0  0  0  0
   -2.4282   26.4477    7.9684 O   0  0  0  0  0  0  0  0  0  0  0  0
   -1.8818   27.6467    7.3837 C   0  0  0  0  0  0  0  0  0  0  0  0
   -2.9259   26.7183    8.7593 H   0  0  0  0  0  0  0  0  0  0  0  0
   -1.3599   27.3036    5.9504 C   0  0  0  0  0  0  0  0  0  0  0  0
   -1.9054   25.9674    5.4248 C   0  0  0  0  0  0  0  0  0  0  0  0
   -1.4115   25.6893    4.0066 C   0  0  0  0  0  0  0  0  0  0  0  0
    0.1076   25.8038    3.9332 C   0  0  0  0  0  0  0  0  0  0  0  0
    0.5907   27.1359    4.5012 C   0  0  0  0  0  0  0  0  0  0  0  0
    0.1186   27.3320    5.8707 N   0  0  0  0  0  0  0  0  0  0  0  0
    0.4218   28.2493    6.2093 H   0  0  0  0  0  0  0  0  0  0  0  0
 19 20  1  0  0  0
 20  1  1  0  0  0
  1  2  2  0  0  0
  2  3  1  0  0  0
  3 11  1  0  0  0
 11 12  1  0  0  0
 11 13  1  0  0  0
 11 14  1  0  0  0
  3  4  2  0  0  0
  4  5  1  0  0  0
  5  6  2  0  0  0
  6 15  1  0  0  0
 15 16  1  0  0  0
 15 17  1  0  0  0
 15 18  1  0  0  0
  6  7  1  0  0  0
  7  8  2  0  0  0
  8  9  1  0  0  0
  9 10  2  0  0  0
 20 22  1  0  0  0
 22 23  1  0  0  0
 23 24  1  0  0  0
 24 25  1  0  0  0
 25 26  1  0  0  0
 26 27  1  0  0  0
 10  1  1  0  0  0
 27 22  1  0  0  0
 10  5  1  0  0  0
 19 21  1  0  0  0
 27 28  1  0  0  0
M  END
> <minimizedAffinity>
-10.44785

$$$$
OCNT-2328676


 16 16  0  0  0  0  0  0  0  0999 V2000
   -3.8374   29.1905    8.3069 C   0  0  0  0  0  0  0  0  0  0  0  0
   -4.4100   30.4282    8.0305 C   0  0  0  0  0  0  0  0  0  0  0  0
   -5.5781   30.5841    8.7686 N   0  0  0  0  0  0  0  0  0  0  0  0
   -5.7134   29.4818    9.4638 C   0  0  0  0  0  0  0  0  0  0  0  0
   -4.6930   28.6159    9.2194 N   0  0  0  0  0  0  0  0  0  0  0  0
   -4.5649   27.7018    9.6270 H   0  0  0  0  0  0  0  0  0  0  0  0
   -3.9140   31.4572    7.1128 C   0  0  0  0  0  0  0  0  0  0  0  0
   -3.0672   31.0347    6.1219 N   0  0  0  0  0  0  0  0  0  0  0  0
   -4.2204   32.6447    7.1765 O   0  0  0  0  0  0  0  0  0  0  0  0
   -2.7947   31.7166    5.4293 H   0  0  0  0  0  0  0  0  0  0  0  0
   -2.8878   30.0538    5.9560 H   0  0  0  0  0  0  0  0  0  0  0  0
   -1.6359   28.9985    8.3502 N   0  0  0  0  0  0  0  0  0  0  0  0
   -2.7065   28.5794    7.8707 N   0  0  0  0  0  0  0  0  0  0  0  0
   -0.6538   27.5018    6.6796 C   0  0  0  0  0  0  0  0  0  0  0  0
   -0.5281   28.3534    7.8571 N   0  0  0  0  0  0  0  0  0  0  0  0
    0.6930   29.1346    7.9620 C   0  0  0  0  0  0  0  0  0  0  0  0
 14 15  1  0  0  0
 15 16  1  0  0  0
 15 12  1  0  0  0
 12 13  2  0  0  0
 13  1  1  0  0  0
  1  2  2  0  0  0
  2  7  1  0  0  0
  7  8  1  0  0  0
  7  9  2  0  0  0
  2  3  1  0  0  0
  3  4  2  0  0  0
  4  5  1  0  0  0
  5  1  1  0  0  0
  8 10  1  0  0  0
  8 11  1  0  0  0
  5  6  1  0  0  0
M  END
> <minimizedAffinity>
-5.50277

$$$$
OCNT-2328688


 17 19  0  0  0  0  0  0  0  0999 V2000
   -3.2083   30.9440    5.7093 N   0  0  0  0  0  0  0  0  0  0  0  0
   -2.7109   31.0642    7.0409 C   0  0  0  0  0  0  0  0  0  0  0  0
   -3.3360   31.9870    7.9159 C   0  0  0  0  0  0  0  0  0  0  0  0
   -4.5170   32.6949    7.5883 C   0  0  0  0  0  0  0  0  0  0  0  0
   -5.1025   33.5811    8.4907 C   0  0  0  0  0  0  0  0  0  0  0  0
   -4.5184   33.7700    9.7346 C   0  0  0  0  0  0  0  0  0  0  0  0
   -3.3548   33.0710   10.0642 C   0  0  0  0  0  0  0  0  0  0  0  0
   -2.7525   32.1848    9.1796 C   0  0  0  0  0  0  0  0  0  0  0  0
   -1.6320   31.5606    9.5684 N   0  0  0  0  0  0  0  0  0  0  0  0
   -1.0133   30.7269    8.7211 C   0  0  0  0  0  0  0  0  0  0  0  0
    0.1647   30.1296    9.1501 C   0  0  0  0  0  0  0  0  0  0  0  0
    0.8985   29.2669    8.3348 C   0  0  0  0  0  0  0  0  0  0  0  0
    0.4496   28.9918    7.0528 C   0  0  0  0  0  0  0  0  0  0  0  0
   -0.7332   29.5759    6.5997 C   0  0  0  0  0  0  0  0  0  0  0  0
   -1.4913   30.4464    7.4251 C   0  0  0  0  0  0  0  0  0  0  0  0
   -2.8544   31.7128    5.1417 H   0  0  0  0  0  0  0  0  0  0  0  0
   -2.9689   30.0575    5.2789 H   0  0  0  0  0  0  0  0  0  0  0  0
  1  2  1  0  0  0
  2  3  2  0  0  0
  3  4  1  0  0  0
  4  5  2  0  0  0
  5  6  1  0  0  0
  6  7  2  0  0  0
  7  8  1  0  0  0
  8  9  2  0  0  0
  9 10  1  0  0  0
 10 11  2  0  0  0
 11 12  1  0  0  0
 12 13  2  0  0  0
 13 14  1  0  0  0
 14 15  2  0  0  0
 15  2  1  0  0  0
  8  3  1  0  0  0
 15 10  1  0  0  0
  1 16  1  0  0  0
  1 17  1  0  0  0
M  END
> <minimizedAffinity>
-7.99917

$$$$
OCNT-2328691


 14 14  0  0  0  0  0  0  0  0999 V2000
   -2.1154   31.4459    8.6455 C   0  0  0  0  0  0  0  0  0  0  0  0
   -2.7337   32.2907    9.5790 C   0  0  0  0  0  0  0  0  0  0  0  0
   -3.8629   33.0330    9.2267 C   0  0  0  0  0  0  0  0  0  0  0  0
   -4.3748   32.9283    7.9378 C   0  0  0  0  0  0  0  0  0  0  0  0
   -5.4754   33.6343    7.5510 O   0  0  0  0  0  0  0  0  0  0  0  0
   -3.7771   32.0955    6.9999 C   0  0  0  0  0  0  0  0  0  0  0  0
   -2.6485   31.3540    7.3521 C   0  0  0  0  0  0  0  0  0  0  0  0
   -5.7698   34.1790    8.2991 H   0  0  0  0  0  0  0  0  0  0  0  0
   -0.9013   30.6319    9.0350 C   0  0  0  0  0  0  0  0  0  0  0  0
    0.8831   29.1842    7.9963 C   0  0  0  0  0  0  0  0  0  0  0  0
   -0.6185   29.4537    8.0789 C   0  0  0  0  0  0  0  0  0  0  0  0
   -1.2899   28.2240    8.5193 N   0  0  0  0  0  0  0  0  0  0  0  0
   -1.1399   27.4897    7.8284 H   0  0  0  0  0  0  0  0  0  0  0  0
   -2.2976   28.3892    8.5374 H   0  0  0  0  0  0  0  0  0  0  0  0
 10 11  1  0  0  0
 11 12  1  0  0  0
 11  9  1  0  0  0
  9  1  1  0  0  0
  1  2  1  0  0  0
  2  3  2  0  0  0
  3  4  1  0  0  0
  4  5  1  0  0  0
  4  6  2  0  0  0
  6  7  1  0  0  0
  7  1  2  0  0  0
 12 13  1  0  0  0
 12 14  1  0  0  0
  5  8  1  0  0  0
M  END
> <minimizedAffinity>
-6.31316

$$$$
OCNT-2328703


 23 26  0  0  0  0  0  0  0  0999 V2000
   -4.8103   26.0304    4.6364 C   0  0  0  0  0  0  0  0  0  0  0  0
   -3.3000   26.1462    4.7771 C   0  0  0  0  0  0  0  0  0  0  0  0
   -2.7142   26.5798    5.9775 C   0  0  0  0  0  0  0  0  0  0  0  0
   -1.3274   26.6764    6.1001 C   0  0  0  0  0  0  0  0  0  0  0  0
   -0.5074   26.3387    5.0257 C   0  0  0  0  0  0  0  0  0  0  0  0
   -1.0725   25.9034    3.8286 C   0  0  0  0  0  0  0  0  0  0  0  0
   -2.4598   25.8062    3.7043 C   0  0  0  0  0  0  0  0  0  0  0  0
   -5.5104   27.3796    4.7562 C   0  0  0  0  0  0  0  0  0  0  0  0
   -6.1969   27.7597    5.9206 C   0  0  0  0  0  0  0  0  0  0  0  0
   -6.8368   28.9981    6.0018 C   0  0  0  0  0  0  0  0  0  0  0  0
   -6.8046   29.8730    4.9188 C   0  0  0  0  0  0  0  0  0  0  0  0
   -6.1347   29.5102    3.7529 C   0  0  0  0  0  0  0  0  0  0  0  0
   -5.4935   28.2726    3.6708 C   0  0  0  0  0  0  0  0  0  0  0  0
   -5.1157   25.4288    3.3672 O   0  0  0  0  0  0  0  0  0  0  0  0
   -8.3418   20.9530    3.1482 C   0  0  0  0  0  0  0  0  0  0  0  0
   -7.4520   22.1107    3.1978 N   0  0  0  0  0  0  0  0  0  0  0  0
   -7.0199   22.5597    1.8596 C   0  0  0  0  0  0  0  0  0  0  0  0
   -5.9174   21.5736    1.4578 C   0  0  0  0  0  0  0  0  0  0  0  0
   -5.3415   21.0861    2.7808 C   0  0  0  0  0  0  0  0  0  0  0  0
   -6.1626   21.8152    3.8505 C   0  0  0  0  0  0  0  0  0  0  0  0
   -5.5055   23.1567    4.2303 C   0  0  0  0  0  0  0  0  0  0  0  0
   -6.0573   24.3518    3.4328 C   0  0  0  0  0  0  0  0  0  0  0  0
   -6.4540   23.9866    1.9933 C   0  0  0  0  0  0  0  0  0  0  0  0
 15 16  1  0  0  0
 16 17  1  0  0  0
 17 18  1  0  0  0
 18 19  1  0  0  0
 19 20  1  0  0  0
 20 21  1  0  0  0
 21 22  1  0  0  0
 22 14  1  0  0  0
 14  1  1  0  0  0
  1  2  1  0  0  0
  2  3  2  0  0  0
  3  4  1  0  0  0
  4  5  2  0  0  0
  5  6  1  0  0  0
  6  7  2  0  0  0
  1  8  1  0  0  0
  8  9  2  0  0  0
  9 10  1  0  0  0
 10 11  2  0  0  0
 11 12  1  0  0  0
 12 13  2  0  0  0
 22 23  1  0  0  0
 20 16  1  0  0  0
  7  2  1  0  0  0
 13  8  1  0  0  0
 23 17  1  0  0  0
M  END
> <minimizedAffinity>
-8.82772

$$$$
OCNT-2328704


 26 27  0  0  0  0  0  0  0  0999 V2000
   -2.8642   27.8452    6.2982 N   0  0  0  0  0  0  0  0  0  0  0  0
   -2.0478   27.6990    7.2942 C   0  0  0  0  0  0  0  0  0  0  0  0
   -1.5777   28.8555    8.0285 C   0  0  0  0  0  0  0  0  0  0  0  0
   -0.2517   29.0491    8.3735 C   0  0  0  0  0  0  0  0  0  0  0  0
   -0.1506   30.2286    9.0597 N   0  0  0  0  0  0  0  0  0  0  0  0
   -1.3862   30.8197    9.1723 C   0  0  0  0  0  0  0  0  0  0  0  0
   -1.7550   32.0219    9.7859 C   0  0  0  0  0  0  0  0  0  0  0  0
   -3.1069   32.3873    9.7521 C   0  0  0  0  0  0  0  0  0  0  0  0
   -4.0557   31.5798    9.1282 C   0  0  0  0  0  0  0  0  0  0  0  0
   -3.6595   30.3801    8.5206 C   0  0  0  0  0  0  0  0  0  0  0  0
   -2.3046   29.9827    8.5363 C   0  0  0  0  0  0  0  0  0  0  0  0
    0.7048   30.6155    9.4345 H   0  0  0  0  0  0  0  0  0  0  0  0
   -5.3969   31.8429    9.0373 O   0  0  0  0  0  0  0  0  0  0  0  0
   -6.2839   30.8625    9.5588 C   0  0  0  0  0  0  0  0  0  0  0  0
   -3.2319   26.6615    5.7049 N   0  0  0  0  0  0  0  0  0  0  0  0
   -3.0341   25.8479    6.2860 H   0  0  0  0  0  0  0  0  0  0  0  0
   -2.9934   26.3591    4.3852 C   0  0  0  0  0  0  0  0  0  0  0  0
   -2.0231   25.6107    3.9831 N   0  0  0  0  0  0  0  0  0  0  0  0
   -1.5639   25.2704    4.8365 H   0  0  0  0  0  0  0  0  0  0  0  0
   -3.8977   26.9475    3.5539 N   0  0  0  0  0  0  0  0  0  0  0  0
   -3.7914   26.6692    2.5859 H   0  0  0  0  0  0  0  0  0  0  0  0
   -5.2862   27.1403    3.9432 C   0  0  0  0  0  0  0  0  0  0  0  0
   -5.9502   28.2622    3.1425 C   0  0  0  0  0  0  0  0  0  0  0  0
   -6.1648   29.5713    3.9119 C   0  0  0  0  0  0  0  0  0  0  0  0
   -7.2929   29.6974    6.1608 C   0  0  0  0  0  0  0  0  0  0  0  0
   -5.9901   29.4259    5.4239 C   0  0  0  0  0  0  0  0  0  0  0  0
 25 26  1  0  0  0
 26 24  1  0  0  0
 24 23  1  0  0  0
 23 22  1  0  0  0
 22 20  1  0  0  0
 20 17  1  0  0  0
 17 18  2  0  0  0
 17 15  1  0  0  0
 15  1  1  0  0  0
  1  2  2  0  0  0
  2  3  1  0  0  0
  3  4  2  0  0  0
  4  5  1  0  0  0
  5  6  1  0  0  0
  6  7  2  0  0  0
  7  8  1  0  0  0
  8  9  2  0  0  0
  9 13  1  0  0  0
 13 14  1  0  0  0
  9 10  1  0  0  0
 10 11  2  0  0  0
 11  3  1  0  0  0
 11  6  1  0  0  0
 20 21  1  0  0  0
 18 19  1  0  0  0
 15 16  1  0  0  0
  5 12  1  0  0  0
M  END
> <minimizedAffinity>
-7.62719

$$$$
OCNT-2328714


 20 21  0  0  0  0  0  0  0  0999 V2000
   -6.1662   23.7566    4.5000 C   0  0  0  0  0  0  0  0  0  0  0  0
   -5.4095   22.0613    6.9035 C   0  0  0  0  0  0  0  0  0  0  0  0
   -6.8408   22.4100    6.5944 C   0  0  0  0  0  0  0  0  0  0  0  0
   -7.2083   23.1903    5.4707 C   0  0  0  0  0  0  0  0  0  0  0  0
   -8.5782   23.4438    5.2552 C   0  0  0  0  0  0  0  0  0  0  0  0
   -9.5573   22.9398    6.1114 C   0  0  0  0  0  0  0  0  0  0  0  0
   -9.1896   22.1635    7.2019 C   0  0  0  0  0  0  0  0  0  0  0  0
   -7.8426   21.8976    7.4392 C   0  0  0  0  0  0  0  0  0  0  0  0
   -6.1556   23.0718    3.1401 C   0  0  0  0  0  0  0  0  0  0  0  0
   -5.8736   21.6991    3.0397 C   0  0  0  0  0  0  0  0  0  0  0  0
   -5.8525   21.0650    1.7956 C   0  0  0  0  0  0  0  0  0  0  0  0
   -6.1035   21.7950    0.6357 C   0  0  0  0  0  0  0  0  0  0  0  0
   -6.3703   23.1598    0.7169 C   0  0  0  0  0  0  0  0  0  0  0  0
   -6.3917   23.7952    1.9596 C   0  0  0  0  0  0  0  0  0  0  0  0
   -6.3802   25.1531    4.2378 O   0  0  0  0  0  0  0  0  0  0  0  0
   -5.5547   26.0286    5.0060 C   0  0  0  0  0  0  0  0  0  0  0  0
   -4.0757   25.5882    5.0615 C   0  0  0  0  0  0  0  0  0  0  0  0
   -3.1678   26.3250    4.1606 N   0  0  0  0  0  0  0  0  0  0  0  0
   -1.7735   26.0716    4.5247 C   0  0  0  0  0  0  0  0  0  0  0  0
   -3.3918   25.9981    2.7540 C   0  0  0  0  0  0  0  0  0  0  0  0
  2  3  1  0  0  0
  3  4  1  0  0  0
  4  1  1  0  0  0
  1 15  1  0  0  0
 15 16  1  0  0  0
 16 17  1  0  0  0
 17 18  1  0  0  0
 18 19  1  0  0  0
 18 20  1  0  0  0
  1  9  1  0  0  0
  9 10  2  0  0  0
 10 11  1  0  0  0
 11 12  2  0  0  0
 12 13  1  0  0  0
 13 14  2  0  0  0
  4  5  2  0  0  0
  5  6  1  0  0  0
  6  7  2  0  0  0
  7  8  1  0  0  0
  8  3  2  0  0  0
 14  9  1  0  0  0
M  END
> <minimizedAffinity>
-7.28728

$$$$
OCNT-2328727


 27 29  0  0  0  0  0  0  0  0999 V2000
   -7.0645   23.9825    4.2356 C   0  0  0  0  0  0  0  0  0  0  0  0
   -7.9568   23.2589    5.2540 C   0  0  0  0  0  0  0  0  0  0  0  0
   -9.3353   23.1372    4.9929 C   0  0  0  0  0  0  0  0  0  0  0  0
  -10.1858   22.5054    5.9035 C   0  0  0  0  0  0  0  0  0  0  0  0
   -9.6689   21.9942    7.0903 C   0  0  0  0  0  0  0  0  0  0  0  0
  -10.7146   21.2170    8.2140 Cl  0  0  0  0  0  0  0  0  0  0  0  0
   -8.3116   22.1134    7.3759 C   0  0  0  0  0  0  0  0  0  0  0  0
   -7.4607   22.7468    6.4653 C   0  0  0  0  0  0  0  0  0  0  0  0
   -4.1662   27.1896    4.9656 N   0  0  0  0  0  0  0  0  0  0  0  0
   -5.6263   27.3193    4.7755 C   0  0  0  0  0  0  0  0  0  0  0  0
   -6.4818   26.1515    5.3197 C   0  0  0  0  0  0  0  0  0  0  0  0
   -6.0430   24.8247    4.8778 N   0  0  0  0  0  0  0  0  0  0  0  0
   -4.6691   24.7753    4.3823 C   0  0  0  0  0  0  0  0  0  0  0  0
   -3.7648   25.7777    5.1358 C   0  0  0  0  0  0  0  0  0  0  0  0
   -3.6934   28.0321    6.0774 C   0  0  0  0  0  0  0  0  0  0  0  0
   -4.7258   29.0581    6.5739 C   0  0  0  0  0  0  0  0  0  0  0  0
   -4.7959   28.9821    8.0021 O   0  0  0  0  0  0  0  0  0  0  0  0
   -6.1342   28.9887    8.4950 C   0  0  0  0  0  0  0  0  0  0  0  0
   -5.6170   27.9530   10.6329 O   0  0  0  0  0  0  0  0  0  0  0  0
   -6.1930   29.0990   10.0175 C   0  0  0  0  0  0  0  0  0  0  0  0
   -4.6645   27.9648   10.4337 H   0  0  0  0  0  0  0  0  0  0  0  0
   -6.6302   23.1045    3.0530 C   0  0  0  0  0  0  0  0  0  0  0  0
   -6.7334   23.6363    1.7512 C   0  0  0  0  0  0  0  0  0  0  0  0
   -6.3733   22.8859    0.6297 C   0  0  0  0  0  0  0  0  0  0  0  0
   -5.9084   21.5842    0.7850 C   0  0  0  0  0  0  0  0  0  0  0  0
   -5.8095   21.0340    2.0595 C   0  0  0  0  0  0  0  0  0  0  0  0
   -6.1717   21.7852    3.1818 C   0  0  0  0  0  0  0  0  0  0  0  0
 19 20  1  0  0  0
 20 18  1  0  0  0
 18 17  1  0  0  0
 17 16  1  0  0  0
 16 15  1  0  0  0
 15  9  1  0  0  0
  9 10  1  0  0  0
 10 11  1  0  0  0
 11 12  1  0  0  0
 12  1  1  0  0  0
  1 22  1  0  0  0
 22 23  2  0  0  0
 23 24  1  0  0  0
 24 25  2  0  0  0
 25 26  1  0  0  0
 26 27  2  0  0  0
  1  2  1  0  0  0
  2  3  1  0  0  0
  3  4  2  0  0  0
  4  5  1  0  0  0
  5  6  1  0  0  0
  5  7  2  0  0  0
  7  8  1  0  0  0
 12 13  1  0  0  0
 13 14  1  0  0  0
 14  9  1  0  0  0
 27 22  1  0  0  0
  8  2  2  0  0  0
 19 21  1  0  0  0
M  END
> <minimizedAffinity>
-7.93074

$$$$
OCNT-2328729


 16 16  0  0  0  0  0  0  0  0999 V2000
   -1.3884   31.1503    8.1186 C   0  0  0  0  0  0  0  0  0  0  0  0
   -0.4968   30.4590    8.9572 C   0  0  0  0  0  0  0  0  0  0  0  0
   -0.0233   29.1908    8.6124 C   0  0  0  0  0  0  0  0  0  0  0  0
   -0.4452   28.6059    7.4243 C   0  0  0  0  0  0  0  0  0  0  0  0
   -0.0088   27.3698    7.0471 O   0  0  0  0  0  0  0  0  0  0  0  0
   -1.3311   29.2642    6.5804 C   0  0  0  0  0  0  0  0  0  0  0  0
   -1.7996   30.5302    6.9322 C   0  0  0  0  0  0  0  0  0  0  0  0
   -2.6770   31.1791    6.1098 O   0  0  0  0  0  0  0  0  0  0  0  0
    0.5991   27.0361    7.7275 H   0  0  0  0  0  0  0  0  0  0  0  0
   -2.8536   30.6159    5.3386 H   0  0  0  0  0  0  0  0  0  0  0  0
   -1.8785   32.5228    8.5214 C   0  0  0  0  0  0  0  0  0  0  0  0
   -2.9961   32.5023    9.5729 C   0  0  0  0  0  0  0  0  0  0  0  0
   -4.2228   33.3601    9.2403 C   0  0  0  0  0  0  0  0  0  0  0  0
   -5.2445   32.7242    8.2927 C   0  0  0  0  0  0  0  0  0  0  0  0
   -6.3951   30.8683    9.5486 C   0  0  0  0  0  0  0  0  0  0  0  0
   -5.3815   31.2115    8.4675 C   0  0  0  0  0  0  0  0  0  0  0  0
 15 16  1  0  0  0
 16 14  1  0  0  0
 14 13  1  0  0  0
 13 12  1  0  0  0
 12 11  1  0  0  0
 11  1  1  0  0  0
  1  2  1  0  0  0
  2  3  2  0  0  0
  3  4  1  0  0  0
  4  5  1  0  0  0
  4  6  2  0  0  0
  6  7  1  0  0  0
  7  8  1  0  0  0
  7  1  2  0  0  0
  5  9  1  0  0  0
  8 10  1  0  0  0
M  END
> <minimizedAffinity>
-6.90970

$$$$
OCNT-2328731


 36 38  0  0  0  0  0  0  0  0999 V2000
   -5.2549   30.5333    8.5611 C   0  0  0  0  0  0  0  0  0  0  0  0
   -6.1620   29.7415    9.1773 C   0  0  0  0  0  0  0  0  0  0  0  0
   -6.5705   29.8787   10.6205 C   0  0  0  0  0  0  0  0  0  0  0  0
   -6.8282   28.7690    8.4452 N   0  0  0  0  0  0  0  0  0  0  0  0
   -6.7490   28.6366    7.0657 C   0  0  0  0  0  0  0  0  0  0  0  0
   -7.7036   27.6552    6.4342 C   0  0  0  0  0  0  0  0  0  0  0  0
   -5.8726   29.3941    6.3688 C   0  0  0  0  0  0  0  0  0  0  0  0
   -4.9582   30.3932    7.0719 C   0  0  0  0  0  0  0  0  0  0  0  0
   -7.5695   28.2594    8.9189 H   0  0  0  0  0  0  0  0  0  0  0  0
   -3.4801   30.0568    6.8433 C   0  0  0  0  0  0  0  0  0  0  0  0
   -3.0614   28.7171    6.8100 C   0  0  0  0  0  0  0  0  0  0  0  0
   -1.7179   28.4332    6.5494 C   0  0  0  0  0  0  0  0  0  0  0  0
   -0.7741   29.4375    6.3244 C   0  0  0  0  0  0  0  0  0  0  0  0
   -1.1866   30.7665    6.3726 C   0  0  0  0  0  0  0  0  0  0  0  0
   -2.5274   31.0741    6.6283 C   0  0  0  0  0  0  0  0  0  0  0  0
   -1.2912   27.0511    6.4904 N   0  0  0  0  0  0  0  0  0  0  0  0
   -2.0026   26.2170    7.0673 O   0  0  0  0  0  0  0  0  0  0  0  0
   -0.2517   26.8066    5.8625 O   0  0  0  0  0  0  0  0  0  0  0  0
   -4.5069   31.6169    9.2359 C   0  0  0  0  0  0  0  0  0  0  0  0
   -3.4925   31.4212    9.8915 O   0  0  0  0  0  0  0  0  0  0  0  0
   -4.2705   33.9151    8.9134 C   0  0  0  0  0  0  0  0  0  0  0  0
   -5.1487   32.8040    9.0941 O   0  0  0  0  0  0  0  0  0  0  0  0
   -5.7703   29.2969    4.8930 C   0  0  0  0  0  0  0  0  0  0  0  0
   -6.1193   30.1661    4.1086 O   0  0  0  0  0  0  0  0  0  0  0  0
   -5.1857   28.1218    4.5556 O   0  0  0  0  0  0  0  0  0  0  0  0
   -5.7256   27.4622    3.3956 C   0  0  0  0  0  0  0  0  0  0  0  0
   -5.3092   25.9820    3.3714 C   0  0  0  0  0  0  0  0  0  0  0  0
   -4.1767   25.6856    2.4756 N   0  0  0  0  0  0  0  0  0  0  0  0
   -2.8909   25.9080    3.1439 C   0  0  0  0  0  0  0  0  0  0  0  0
   -4.2786   24.2934    1.9937 C   0  0  0  0  0  0  0  0  0  0  0  0
   -5.4865   24.0540    1.1146 C   0  0  0  0  0  0  0  0  0  0  0  0
   -5.9357   25.0459    0.2329 C   0  0  0  0  0  0  0  0  0  0  0  0
   -7.0397   24.8144   -0.5882 C   0  0  0  0  0  0  0  0  0  0  0  0
   -7.7052   23.5908   -0.5381 C   0  0  0  0  0  0  0  0  0  0  0  0
   -7.2668   22.5962    0.3330 C   0  0  0  0  0  0  0  0  0  0  0  0
   -6.1626   22.8245    1.1538 C   0  0  0  0  0  0  0  0  0  0  0  0
 21 22  1  0  0  0
 22 19  1  0  0  0
 19 20  2  0  0  0
 19  1  1  0  0  0
  1  2  2  0  0  0
  2  3  1  0  0  0
  2  4  1  0  0  0
  4  5  1  0  0  0
  5  6  1  0  0  0
  5  7  2  0  0  0
  7 23  1  0  0  0
 23 24  2  0  0  0
 23 25  1  0  0  0
 25 26  1  0  0  0
 26 27  1  0  0  0
 27 28  1  0  0  0
 28 29  1  0  0  0
 28 30  1  0  0  0
 30 31  1  0  0  0
 31 32  2  0  0  0
 32 33  1  0  0  0
 33 34  2  0  0  0
 34 35  1  0  0  0
 35 36  2  0  0  0
  7  8  1  0  0  0
  8 10  1  0  0  0
 10 11  1  0  0  0
 11 12  2  0  0  0
 12 16  1  0  0  0
 16 17  2  0  0  0
 16 18  1  0  0  0
 12 13  1  0  0  0
 13 14  2  0  0  0
 14 15  1  0  0  0
  8  1  1  0  0  0
 15 10  2  0  0  0
 36 31  1  0  0  0
  4  9  1  0  0  0
M  CHG 1  16   1
M  CHG 1  18  -1
M  END
> <minimizedAffinity>
-8.95571

$$$$
OCNT-2328732


 14 13  0  0  0  0  0  0  0  0999 V2000
   -1.0037   29.9556    6.9525 C   0  0  0  0  0  0  0  0  0  0  0  0
   -0.1934   29.8850    8.6114 S   0  0  0  0  0  0  0  0  0  0  0  0
    0.7754   29.0229    8.2654 H   0  0  0  0  0  0  0  0  0  0  0  0
   -1.7327   32.1865    7.6625 O   0  0  0  0  0  0  0  0  0  0  0  0
   -1.8538   31.2116    6.9370 C   0  0  0  0  0  0  0  0  0  0  0  0
   -2.8194   31.1833    5.9941 O   0  0  0  0  0  0  0  0  0  0  0  0
   -3.2581   32.0578    6.0599 H   0  0  0  0  0  0  0  0  0  0  0  0
   -1.8665   28.7168    6.6704 C   0  0  0  0  0  0  0  0  0  0  0  0
   -0.8486   27.2259    6.2704 S   0  0  0  0  0  0  0  0  0  0  0  0
   -0.5347   27.5979    5.0175 H   0  0  0  0  0  0  0  0  0  0  0  0
   -2.7513   28.3371    7.8421 C   0  0  0  0  0  0  0  0  0  0  0  0
   -3.6888   28.9910    8.2729 O   0  0  0  0  0  0  0  0  0  0  0  0
   -2.4702   27.1355    8.3878 O   0  0  0  0  0  0  0  0  0  0  0  0
   -3.1826   27.0077    9.0521 H   0  0  0  0  0  0  0  0  0  0  0  0
  4  5  2  0  0  0
  5  6  1  0  0  0
  5  1  1  0  0  0
  1  2  1  0  0  0
  1  8  1  0  0  0
  8  9  1  0  0  0
  8 11  1  0  0  0
 11 12  2  0  0  0
 11 13  1  0  0  0
  6  7  1  0  0  0
  2  3  1  0  0  0
  9 10  1  0  0  0
 13 14  1  0  0  0
M  END
> <minimizedAffinity>
-4.71553

$$$$
OCNT-2328745


 15 15  0  0  0  0  0  0  0  0999 V2000
   -3.8830   25.6017    2.0349 N   0  0  0  0  0  0  0  0  0  0  0  0
   -4.4535   26.1256    1.3827 H   0  0  0  0  0  0  0  0  0  0  0  0
   -2.4517   26.5631    5.2487 C   0  0  0  0  0  0  0  0  0  0  0  0
   -2.7507   25.8748    4.0145 N   0  0  0  0  0  0  0  0  0  0  0  0
   -3.5953   26.3200    3.1641 C   0  0  0  0  0  0  0  0  0  0  0  0
   -4.3607   27.4513    3.1113 N   0  0  0  0  0  0  0  0  0  0  0  0
   -5.7993   27.5018    3.2014 C   0  0  0  0  0  0  0  0  0  0  0  0
   -3.9356   28.1837    3.6697 H   0  0  0  0  0  0  0  0  0  0  0  0
   -4.3214   24.2196    2.1321 C   0  0  0  0  0  0  0  0  0  0  0  0
   -5.4700   23.9971    1.1761 C   0  0  0  0  0  0  0  0  0  0  0  0
   -6.1226   22.7572    1.1164 C   0  0  0  0  0  0  0  0  0  0  0  0
   -7.1951   22.5642    0.2438 C   0  0  0  0  0  0  0  0  0  0  0  0
   -7.6299   23.6084   -0.5708 C   0  0  0  0  0  0  0  0  0  0  0  0
   -6.9955   24.8480   -0.5129 C   0  0  0  0  0  0  0  0  0  0  0  0
   -5.9226   25.0430    0.3579 C   0  0  0  0  0  0  0  0  0  0  0  0
  3  4  1  0  0  0
  4  5  2  0  0  0
  5  6  1  0  0  0
  6  7  1  0  0  0
  5  1  1  0  0  0
  1  9  1  0  0  0
  9 10  1  0  0  0
 10 11  2  0  0  0
 11 12  1  0  0  0
 12 13  2  0  0  0
 13 14  1  0  0  0
 14 15  2  0  0  0
 15 10  1  0  0  0
  6  8  1  0  0  0
  1  2  1  0  0  0
M  END
> <minimizedAffinity>
-6.33203

$$$$
OCNT-2328750


 19 18  0  0  0  0  0  0  0  0999 V2000
   -2.1561   28.1807    7.9295 C   0  0  0  0  0  0  0  0  0  0  0  0
   -2.4879   26.7947    8.1271 O   0  0  0  0  0  0  0  0  0  0  0  0
   -2.6658   26.4435    7.2316 H   0  0  0  0  0  0  0  0  0  0  0  0
   -3.4309   28.9553    7.5313 C   0  0  0  0  0  0  0  0  0  0  0  0
   -4.3343   28.0828    6.8223 O   0  0  0  0  0  0  0  0  0  0  0  0
   -5.1091   28.6528    6.6398 H   0  0  0  0  0  0  0  0  0  0  0  0
   -4.1485   29.5596    8.7559 C   0  0  0  0  0  0  0  0  0  0  0  0
   -6.0936   28.9210   10.0284 C   0  0  0  0  0  0  0  0  0  0  0  0
   -4.7789   28.4891    9.5575 N   0  0  0  0  0  0  0  0  0  0  0  0
   -4.1985   28.3376   10.3854 H   0  0  0  0  0  0  0  0  0  0  0  0
   -1.0711   28.2763    6.8294 C   0  0  0  0  0  0  0  0  0  0  0  0
   -0.2588   27.0902    6.8529 O   0  0  0  0  0  0  0  0  0  0  0  0
   -0.8887   26.3340    6.8451 H   0  0  0  0  0  0  0  0  0  0  0  0
   -0.1814   29.5136    7.0216 C   0  0  0  0  0  0  0  0  0  0  0  0
    0.8827   29.5012    6.0564 O   0  0  0  0  0  0  0  0  0  0  0  0
    1.5617   30.1084    6.4161 H   0  0  0  0  0  0  0  0  0  0  0  0
    0.4420   29.5672    8.4212 C   0  0  0  0  0  0  0  0  0  0  0  0
    1.7056   28.8907    8.3858 O   0  0  0  0  0  0  0  0  0  0  0  0
    2.3316   29.4899    7.9407 H   0  0  0  0  0  0  0  0  0  0  0  0
  8  9  1  0  0  0
  9  7  1  0  0  0
  7  4  1  0  0  0
  4  5  1  0  0  0
  4  1  1  0  0  0
  1  2  1  0  0  0
  1 11  1  0  0  0
 11 12  1  0  0  0
 11 14  1  0  0  0
 14 15  1  0  0  0
 14 17  1  0  0  0
 17 18  1  0  0  0
  9 10  1  0  0  0
  5  6  1  0  0  0
  2  3  1  0  0  0
 12 13  1  0  0  0
 15 16  1  0  0  0
 18 19  1  0  0  0
M  END
> <minimizedAffinity>
-5.78592

$$$$
OCNT-2328763


 23 25  0  0  0  0  0  0  0  0999 V2000
   -4.7530   25.9640    3.7471 C   0  0  0  0  0  0  0  0  0  0  0  0
   -7.9234   22.8728   -0.3741 Cl  0  0  0  0  0  0  0  0  0  0  0  0
   -7.0255   23.7508    0.8014 C   0  0  0  0  0  0  0  0  0  0  0  0
   -6.2566   24.8443    0.4087 C   0  0  0  0  0  0  0  0  0  0  0  0
   -5.5271   25.5594    1.3620 C   0  0  0  0  0  0  0  0  0  0  0  0
   -5.5626   25.1875    2.7171 C   0  0  0  0  0  0  0  0  0  0  0  0
   -6.3419   24.0788    3.0910 C   0  0  0  0  0  0  0  0  0  0  0  0
   -7.0713   23.3644    2.1384 C   0  0  0  0  0  0  0  0  0  0  0  0
   -5.4819   27.2055    4.2443 C   0  0  0  0  0  0  0  0  0  0  0  0
   -5.5458   28.3824    3.4794 C   0  0  0  0  0  0  0  0  0  0  0  0
   -6.2214   29.5085    3.9553 C   0  0  0  0  0  0  0  0  0  0  0  0
   -6.8502   29.4718    5.1983 C   0  0  0  0  0  0  0  0  0  0  0  0
   -6.8053   28.3098    5.9660 C   0  0  0  0  0  0  0  0  0  0  0  0
   -6.1285   27.1833    5.4924 C   0  0  0  0  0  0  0  0  0  0  0  0
   -3.4927   26.3171    3.1550 O   0  0  0  0  0  0  0  0  0  0  0  0
   -2.3538   25.8602    3.8917 C   0  0  0  0  0  0  0  0  0  0  0  0
   -2.4453   26.2240    5.3866 C   0  0  0  0  0  0  0  0  0  0  0  0
   -1.8716   27.5436    5.7179 N   0  0  0  0  0  0  0  0  0  0  0  0
   -2.8156   28.2981    6.5618 C   0  0  0  0  0  0  0  0  0  0  0  0
   -2.2903   29.6991    6.8772 C   0  0  0  0  0  0  0  0  0  0  0  0
   -0.9149   29.6423    7.5306 C   0  0  0  0  0  0  0  0  0  0  0  0
    0.0350   28.7958    6.6925 C   0  0  0  0  0  0  0  0  0  0  0  0
   -0.5640   27.4219    6.3830 C   0  0  0  0  0  0  0  0  0  0  0  0
  2  3  1  0  0  0
  3  4  1  0  0  0
  4  5  2  0  0  0
  5  6  1  0  0  0
  6  1  1  0  0  0
  1 15  1  0  0  0
 15 16  1  0  0  0
 16 17  1  0  0  0
 17 18  1  0  0  0
 18 19  1  0  0  0
 19 20  1  0  0  0
 20 21  1  0  0  0
 21 22  1  0  0  0
 22 23  1  0  0  0
  1  9  1  0  0  0
  9 10  2  0  0  0
 10 11  1  0  0  0
 11 12  2  0  0  0
 12 13  1  0  0  0
 13 14  2  0  0  0
  6  7  2  0  0  0
  7  8  1  0  0  0
  8  3  2  0  0  0
 23 18  1  0  0  0
 14  9  1  0  0  0
M  END
> <minimizedAffinity>
-8.74107

$$$$
OCNT-2328764


 13 13  0  0  0  0  0  0  0  0999 V2000
   -5.1401   30.5718    9.4041 C   0  0  0  0  0  0  0  0  0  0  0  0
   -3.7709   30.1174    8.9843 C   0  0  0  0  0  0  0  0  0  0  0  0
   -3.6216   28.8950    8.3125 C   0  0  0  0  0  0  0  0  0  0  0  0
   -2.3568   28.4526    7.9127 C   0  0  0  0  0  0  0  0  0  0  0  0
   -2.2381   27.2579    7.2597 O   0  0  0  0  0  0  0  0  0  0  0  0
   -1.2055   29.2077    8.1666 C   0  0  0  0  0  0  0  0  0  0  0  0
   -1.3617   30.4316    8.8401 C   0  0  0  0  0  0  0  0  0  0  0  0
   -2.6245   30.8806    9.2433 C   0  0  0  0  0  0  0  0  0  0  0  0
   -2.7170   32.3981   10.0651 Cl  0  0  0  0  0  0  0  0  0  0  0  0
   -3.1180   26.8596    7.1610 H   0  0  0  0  0  0  0  0  0  0  0  0
    0.1720   28.7301    7.7334 C   0  0  0  0  0  0  0  0  0  0  0  0
    0.5188   29.2206    6.3246 C   0  0  0  0  0  0  0  0  0  0  0  0
    1.2518   29.1476    8.7363 C   0  0  0  0  0  0  0  0  0  0  0  0
  1  2  1  0  0  0
  2  3  1  0  0  0
  3  4  2  0  0  0
  4  5  1  0  0  0
  4  6  1  0  0  0
  6 11  1  0  0  0
 11 12  1  0  0  0
 11 13  1  0  0  0
  6  7  2  0  0  0
  7  8  1  0  0  0
  8  9  1  0  0  0
  8  2  2  0  0  0
  5 10  1  0  0  0
M  END
> <minimizedAffinity>
-6.49876

$$$$
OCNT-2328781


 26 28  0  0  0  0  0  0  0  0999 V2000
   -4.0478   24.7951    1.3696 C   0  0  0  0  0  0  0  0  0  0  0  0
   -4.6095   24.5697    2.7492 C   0  0  0  0  0  0  0  0  0  0  0  0
   -5.5790   23.5702    2.9631 C   0  0  0  0  0  0  0  0  0  0  0  0
   -6.0605   23.3382    4.2475 C   0  0  0  0  0  0  0  0  0  0  0  0
   -5.5462   24.0921    5.2831 C   0  0  0  0  0  0  0  0  0  0  0  0
   -4.6012   25.0360    5.1234 N   0  0  0  0  0  0  0  0  0  0  0  0
   -4.1392   25.2765    3.8690 C   0  0  0  0  0  0  0  0  0  0  0  0
   -5.9785   22.8767    1.8498 O   0  0  0  0  0  0  0  0  0  0  0  0
   -7.3496   22.9782    1.4496 C   0  0  0  0  0  0  0  0  0  0  0  0
   -7.4520   23.1387   -0.0598 C   0  0  0  0  0  0  0  0  0  0  0  0
   -6.4381   22.5177   -0.7011 F   0  0  0  0  0  0  0  0  0  0  0  0
   -8.6077   22.5930   -0.5102 F   0  0  0  0  0  0  0  0  0  0  0  0
   -7.4505   24.4380   -0.4289 F   0  0  0  0  0  0  0  0  0  0  0  0
   -3.0821   26.3485    3.7732 C   0  0  0  0  0  0  0  0  0  0  0  0
   -1.4720   25.7642    4.3883 S   0  0  0  0  0  0  0  0  0  0  0  0
   -0.3985   26.0847    3.3859 O   0  0  0  0  0  0  0  0  0  0  0  0
   -1.2865   27.0130    5.6723 C   0  0  0  0  0  0  0  0  0  0  0  0
   -2.2755   27.6625    6.2459 N   0  0  0  0  0  0  0  0  0  0  0  0
   -1.6683   28.5000    7.1521 C   0  0  0  0  0  0  0  0  0  0  0  0
   -2.2387   29.4230    8.0404 C   0  0  0  0  0  0  0  0  0  0  0  0
   -1.3911   30.1687    8.8699 C   0  0  0  0  0  0  0  0  0  0  0  0
   -0.0050   29.9993    8.8159 C   0  0  0  0  0  0  0  0  0  0  0  0
    0.5833   29.0830    7.9363 C   0  0  0  0  0  0  0  0  0  0  0  0
   -0.2842   28.3528    7.1223 C   0  0  0  0  0  0  0  0  0  0  0  0
   -0.0700   27.3940    6.1682 N   0  0  0  0  0  0  0  0  0  0  0  0
    0.8171   27.0253    5.8536 H   0  0  0  0  0  0  0  0  0  0  0  0
  1  2  1  0  0  0
  2  3  1  0  0  0
  3  8  1  0  0  0
  8  9  1  0  0  0
  9 10  1  0  0  0
 10 11  1  0  0  0
 10 12  1  0  0  0
 10 13  1  0  0  0
  3  4  2  0  0  0
  4  5  1  0  0  0
  5  6  2  0  0  0
  6  7  1  0  0  0
  7 14  1  0  0  0
 14 15  1  0  0  0
 15 16  2  0  0  0
 15 17  1  0  0  0
 17 18  2  0  0  0
 18 19  1  0  0  0
 19 20  2  0  0  0
 20 21  1  0  0  0
 21 22  2  0  0  0
 22 23  1  0  0  0
 23 24  2  0  0  0
 24 25  1  0  0  0
  7  2  2  0  0  0
 25 17  1  0  0  0
 24 19  1  0  0  0
 25 26  1  0  0  0
M  END
> <minimizedAffinity>
-8.95350

$$$$
OCNT-2328787


 22 22  0  0  0  0  0  0  0  0999 V2000
   -5.5391   28.0441    5.6231 C   0  0  0  0  0  0  0  0  0  0  0  0
   -4.5190   29.0003    6.2413 C   0  0  0  0  0  0  0  0  0  0  0  0
   -3.1435   28.3736    6.4961 C   0  0  0  0  0  0  0  0  0  0  0  0
   -2.3034   29.0901    7.5600 C   0  0  0  0  0  0  0  0  0  0  0  0
   -1.4219   30.1978    6.9737 C   0  0  0  0  0  0  0  0  0  0  0  0
   -1.9096   31.6083    7.3230 C   0  0  0  0  0  0  0  0  0  0  0  0
   -1.4594   32.0794    8.7084 C   0  0  0  0  0  0  0  0  0  0  0  0
   -2.5843   32.0699    9.7500 C   0  0  0  0  0  0  0  0  0  0  0  0
   -3.9704   32.3127    9.1470 C   0  0  0  0  0  0  0  0  0  0  0  0
   -4.9111   34.4758    8.1665 C   0  0  0  0  0  0  0  0  0  0  0  0
   -4.5135   33.7173    9.4235 C   0  0  0  0  0  0  0  0  0  0  0  0
   -5.9419   28.5004    4.2183 C   0  0  0  0  0  0  0  0  0  0  0  0
   -5.7708   27.4134    3.1565 C   0  0  0  0  0  0  0  0  0  0  0  0
   -5.8555   25.9621    3.6431 C   0  0  0  0  0  0  0  0  0  0  0  0
   -4.6967   25.0673    3.1927 C   0  0  0  0  0  0  0  0  0  0  0  0
   -4.4110   25.1587    1.6972 C   0  0  0  0  0  0  0  0  0  0  0  0
   -5.5093   24.4962    0.9514 N   0  0  0  0  0  0  0  0  0  0  0  0
   -5.7826   23.1905    1.1835 C   0  0  0  0  0  0  0  0  0  0  0  0
   -6.8027   22.5474    0.4926 C   0  0  0  0  0  0  0  0  0  0  0  0
   -7.5437   23.2567   -0.4436 C   0  0  0  0  0  0  0  0  0  0  0  0
   -7.2518   24.5950   -0.6718 C   0  0  0  0  0  0  0  0  0  0  0  0
   -6.2230   25.1998    0.0409 C   0  0  0  0  0  0  0  0  0  0  0  0
 10 11  1  0  0  0
 11  9  1  0  0  0
  9  8  1  0  0  0
  8  7  1  0  0  0
  7  6  1  0  0  0
  6  5  1  0  0  0
  5  4  1  0  0  0
  4  3  1  0  0  0
  3  2  1  0  0  0
  2  1  1  0  0  0
  1 12  1  0  0  0
 12 13  1  0  0  0
 13 14  1  0  0  0
 14 15  1  0  0  0
 15 16  1  0  0  0
 16 17  1  0  0  0
 17 18  2  0  0  0
 18 19  1  0  0  0
 19 20  2  0  0  0
 20 21  1  0  0  0
 21 22  2  0  0  0
 22 17  1  0  0  0
M  CHG 1  17   1
M  END
> <minimizedAffinity>
-7.23963

$$$$
OCNT-2328788


 21 23  0  0  0  0  0  0  0  0999 V2000
   -5.6038   29.1726    5.7118 C   0  0  0  0  0  0  0  0  0  0  0  0
   -6.0062   29.3851    4.2404 C   0  0  0  0  0  0  0  0  0  0  0  0
   -6.1047   28.0925    3.4122 C   0  0  0  0  0  0  0  0  0  0  0  0
   -5.8264   26.7965    4.2056 C   0  0  0  0  0  0  0  0  0  0  0  0
   -4.5652   26.9747    5.0453 C   0  0  0  0  0  0  0  0  0  0  0  0
   -4.4330   28.1891    5.7667 C   0  0  0  0  0  0  0  0  0  0  0  0
   -3.2717   28.4088    6.5248 C   0  0  0  0  0  0  0  0  0  0  0  0
   -2.2737   27.4372    6.5992 C   0  0  0  0  0  0  0  0  0  0  0  0
   -2.4258   26.2295    5.9276 C   0  0  0  0  0  0  0  0  0  0  0  0
   -3.5658   25.9958    5.1594 C   0  0  0  0  0  0  0  0  0  0  0  0
   -5.8633   25.5785    3.2859 C   0  0  0  0  0  0  0  0  0  0  0  0
   -6.3090   24.3220    3.7346 C   0  0  0  0  0  0  0  0  0  0  0  0
   -6.3383   23.2183    2.8738 C   0  0  0  0  0  0  0  0  0  0  0  0
   -6.9039   21.7157    3.5129 Cl  0  0  0  0  0  0  0  0  0  0  0  0
   -5.9228   23.3591    1.5469 C   0  0  0  0  0  0  0  0  0  0  0  0
   -5.9307   22.0444    0.4262 Cl  0  0  0  0  0  0  0  0  0  0  0  0
   -5.4845   24.6030    1.0873 C   0  0  0  0  0  0  0  0  0  0  0  0
   -5.4568   25.7035    1.9483 C   0  0  0  0  0  0  0  0  0  0  0  0
   -6.1727   30.6398    7.5913 C   0  0  0  0  0  0  0  0  0  0  0  0
   -5.3367   30.4401    6.4144 N   0  0  0  0  0  0  0  0  0  0  0  0
   -4.3658   30.4193    6.7265 H   0  0  0  0  0  0  0  0  0  0  0  0
 19 20  1  0  0  0
 20  1  1  0  0  0
  1  2  1  0  0  0
  2  3  1  0  0  0
  3  4  1  0  0  0
  4 11  1  0  0  0
 11 12  2  0  0  0
 12 13  1  0  0  0
 13 14  1  0  0  0
 13 15  2  0  0  0
 15 16  1  0  0  0
 15 17  1  0  0  0
 17 18  2  0  0  0
  4  5  1  0  0  0
  5  6  1  0  0  0
  6  7  2  0  0  0
  7  8  1  0  0  0
  8  9  2  0  0  0
  9 10  1  0  0  0
  6  1  1  0  0  0
 18 11  1  0  0  0
 10  5  2  0  0  0
 20 21  1  0  0  0
M  END
> <minimizedAffinity>
-8.77737

$$$$
OCNT-2328791


 30 31  0  0  0  0  0  0  0  0999 V2000
   -6.2240   28.9329    5.6498 O   0  0  0  0  0  0  0  0  0  0  0  0
   -5.8883   25.6675    3.0204 C   0  0  0  0  0  0  0  0  0  0  0  0
   -6.1409   25.5314    4.3973 C   0  0  0  0  0  0  0  0  0  0  0  0
   -6.2498   26.6491    5.2315 C   0  0  0  0  0  0  0  0  0  0  0  0
   -6.1005   27.9380    4.7229 C   0  0  0  0  0  0  0  0  0  0  0  0
   -5.8289   28.0943    3.3687 C   0  0  0  0  0  0  0  0  0  0  0  0
   -5.7196   26.9736    2.5311 C   0  0  0  0  0  0  0  0  0  0  0  0
   -5.7655   24.4106    2.1082 C   0  0  0  0  0  0  0  0  0  0  0  0
   -4.2944   24.0006    1.9017 C   0  0  0  0  0  0  0  0  0  0  0  0
   -6.3240   24.7651    0.7071 C   0  0  0  0  0  0  0  0  0  0  0  0
   -6.6094   23.2870    2.8049 C   0  0  0  0  0  0  0  0  0  0  0  0
   -7.4298   21.0033    3.4022 C   0  0  0  0  0  0  0  0  0  0  0  0
   -6.2439   21.7681    2.7600 C   0  0  0  0  0  0  0  0  0  0  0  0
   -6.0579   21.2205    1.3407 C   0  0  0  0  0  0  0  0  0  0  0  0
   -4.9974   21.4425    3.6035 C   0  0  0  0  0  0  0  0  0  0  0  0
   -5.6281   28.7497    6.9372 C   0  0  0  0  0  0  0  0  0  0  0  0
   -4.4512   29.7091    7.1618 C   0  0  0  0  0  0  0  0  0  0  0  0
   -3.7343   29.4848    8.3832 O   0  0  0  0  0  0  0  0  0  0  0  0
   -2.5671   30.2845    8.5400 C   0  0  0  0  0  0  0  0  0  0  0  0
   -1.6706   30.1506    7.2948 C   0  0  0  0  0  0  0  0  0  0  0  0
   -0.4289   29.2321    7.4686 N   0  0  0  0  0  0  0  0  0  0  0  0
    0.5644   29.4377    6.3373 C   0  0  0  0  0  0  0  0  0  0  0  0
    0.2824   29.5219    8.7962 C   0  0  0  0  0  0  0  0  0  0  0  0
   -0.8885   27.7531    7.5259 C   0  0  0  0  0  0  0  0  0  0  0  0
   -1.1592   27.0708    6.2071 C   0  0  0  0  0  0  0  0  0  0  0  0
   -0.1010   26.5633    5.4350 C   0  0  0  0  0  0  0  0  0  0  0  0
   -0.3512   25.9236    4.2199 C   0  0  0  0  0  0  0  0  0  0  0  0
   -1.6576   25.7902    3.7577 C   0  0  0  0  0  0  0  0  0  0  0  0
   -2.7157   26.3024    4.5044 C   0  0  0  0  0  0  0  0  0  0  0  0
   -2.4697   26.9425    5.7200 C   0  0  0  0  0  0  0  0  0  0  0  0
 12 13  1  0  0  0
 13 14  1  0  0  0
 13 15  1  0  0  0
 13 11  1  0  0  0
 11  8  1  0  0  0
  8  9  1  0  0  0
  8 10  1  0  0  0
  8  2  1  0  0  0
  2  3  1  0  0  0
  3  4  2  0  0  0
  4  5  1  0  0  0
  5  1  1  0  0  0
  1 16  1  0  0  0
 16 17  1  0  0  0
 17 18  1  0  0  0
 18 19  1  0  0  0
 19 20  1  0  0  0
 20 21  1  0  0  0
 21 22  1  0  0  0
 21 23  1  0  0  0
 21 24  1  0  0  0
 24 25  1  0  0  0
 25 26  2  0  0  0
 26 27  1  0  0  0
 27 28  2  0  0  0
 28 29  1  0  0  0
 29 30  2  0  0  0
  5  6  2  0  0  0
  6  7  1  0  0  0
  7  2  2  0  0  0
 30 25  1  0  0  0
M  CHG 1  21   1
M  END
> <minimizedAffinity>
-8.90372

$$$$
OCNT-2328803


 20 21  0  0  0  0  0  0  0  0999 V2000
   -2.2027   29.4454    8.2726 C   0  0  0  0  0  0  0  0  0  0  0  0
   -1.2783   30.2237    8.9919 C   0  0  0  0  0  0  0  0  0  0  0  0
    0.1089   30.0172    8.8661 C   0  0  0  0  0  0  0  0  0  0  0  0
    0.6088   29.0254    8.0219 C   0  0  0  0  0  0  0  0  0  0  0  0
   -0.3093   28.2673    7.3293 C   0  0  0  0  0  0  0  0  0  0  0  0
   -1.6874   28.4584    7.4424 C   0  0  0  0  0  0  0  0  0  0  0  0
   -2.3898   27.4635    6.5621 C   0  0  0  0  0  0  0  0  0  0  0  0
   -1.2218   26.6948    5.9373 C   0  0  0  0  0  0  0  0  0  0  0  0
   -1.2985   25.7759    5.1389 O   0  0  0  0  0  0  0  0  0  0  0  0
   -0.0475   27.2333    6.4453 N   0  0  0  0  0  0  0  0  0  0  0  0
    0.8663   26.8941    6.1867 H   0  0  0  0  0  0  0  0  0  0  0  0
   -3.6850   29.6704    8.4346 C   0  0  0  0  0  0  0  0  0  0  0  0
   -4.2200   30.6930    7.4159 C   0  0  0  0  0  0  0  0  0  0  0  0
   -5.3960   31.4843    7.8258 N   0  0  0  0  0  0  0  0  0  0  0  0
   -6.6667   30.7388    7.7622 C   0  0  0  0  0  0  0  0  0  0  0  0
   -7.1212   28.4935    6.6362 C   0  0  0  0  0  0  0  0  0  0  0  0
   -6.9306   29.9917    6.4468 C   0  0  0  0  0  0  0  0  0  0  0  0
   -5.2595   32.1287    9.1452 C   0  0  0  0  0  0  0  0  0  0  0  0
   -4.4218   33.4135    9.1291 C   0  0  0  0  0  0  0  0  0  0  0  0
   -4.9862   34.4285    8.1450 C   0  0  0  0  0  0  0  0  0  0  0  0
 16 17  1  0  0  0
 17 15  1  0  0  0
 15 14  1  0  0  0
 14 18  1  0  0  0
 18 19  1  0  0  0
 19 20  1  0  0  0
 14 13  1  0  0  0
 13 12  1  0  0  0
 12  1  1  0  0  0
  1  2  2  0  0  0
  2  3  1  0  0  0
  3  4  2  0  0  0
  4  5  1  0  0  0
  5  6  2  0  0  0
  6  7  1  0  0  0
  7  8  1  0  0  0
  8  9  2  0  0  0
  8 10  1  0  0  0
  6  1  1  0  0  0
 10  5  1  0  0  0
 10 11  1  0  0  0
M  END
> <minimizedAffinity>
-7.51807

$$$$
OCNT-2328805


 30 34  0  0  0  0  0  0  0  0999 V2000
   -6.6248   26.8515    5.5169 O   0  0  0  0  0  0  0  0  0  0  0  0
   -5.5040   27.2770    5.2470 C   0  0  0  0  0  0  0  0  0  0  0  0
   -4.6373   26.7829    4.0477 C   0  0  0  0  0  0  0  0  0  0  0  0
   -4.6173   27.8853    3.1146 O   0  0  0  0  0  0  0  0  0  0  0  0
   -5.5182   27.9510    2.7455 H   0  0  0  0  0  0  0  0  0  0  0  0
   -3.1868   26.5187    4.4883 C   0  0  0  0  0  0  0  0  0  0  0  0
   -2.7635   26.7065    5.8170 C   0  0  0  0  0  0  0  0  0  0  0  0
   -1.4309   26.4969    6.1855 C   0  0  0  0  0  0  0  0  0  0  0  0
   -0.4946   26.1089    5.2328 C   0  0  0  0  0  0  0  0  0  0  0  0
   -0.8883   25.9283    3.9116 C   0  0  0  0  0  0  0  0  0  0  0  0
   -2.2198   26.1328    3.5417 C   0  0  0  0  0  0  0  0  0  0  0  0
   -5.2874   25.6104    3.2923 C   0  0  0  0  0  0  0  0  0  0  0  0
   -5.6103   25.7690    1.9264 C   0  0  0  0  0  0  0  0  0  0  0  0
   -6.1907   24.7315    1.1948 C   0  0  0  0  0  0  0  0  0  0  0  0
   -6.4619   23.5145    1.8136 C   0  0  0  0  0  0  0  0  0  0  0  0
   -6.1543   23.3341    3.1617 C   0  0  0  0  0  0  0  0  0  0  0  0
   -5.5699   24.3703    3.8958 C   0  0  0  0  0  0  0  0  0  0  0  0
   -4.8600   28.2155    6.0102 O   0  0  0  0  0  0  0  0  0  0  0  0
   -5.5905   29.4249    6.3086 C   0  0  0  0  0  0  0  0  0  0  0  0
   -5.8499   29.4957    7.8185 C   0  0  0  0  0  0  0  0  0  0  0  0
   -4.6913   30.1116    8.6213 C   0  0  0  0  0  0  0  0  0  0  0  0
   -3.3650   29.3780    8.3768 C   0  0  0  0  0  0  0  0  0  0  0  0
   -2.7299   30.0697    7.1665 C   0  0  0  0  0  0  0  0  0  0  0  0
   -3.7311   31.1563    6.7445 C   0  0  0  0  0  0  0  0  0  0  0  0
   -4.7692   30.5992    5.7593 C   0  0  0  0  0  0  0  0  0  0  0  0
   -4.3988   31.5236    8.0903 N   0  0  0  0  0  0  0  0  0  0  0  0
   -5.6178   32.4563    8.0274 C   0  0  0  0  0  0  0  0  0  0  0  0
   -5.0527   33.8374    8.2639 C   0  0  0  0  0  0  0  0  0  0  0  0
   -4.0921   33.5905    9.4002 C   0  0  0  0  0  0  0  0  0  0  0  0
   -3.3928   32.3015    9.0109 C   0  0  0  0  0  0  0  0  0  0  0  0
  1  2  2  0  0  0
  2 18  1  0  0  0
 18 19  1  0  0  0
 19 20  1  0  0  0
 20 21  1  0  0  0
 21 22  1  0  0  0
 22 23  1  0  0  0
 23 24  1  0  0  0
 24 25  1  0  0  0
 24 26  1  0  0  0
 26 27  1  0  0  0
 27 28  1  0  0  0
 28 29  1  0  0  0
 29 30  1  0  0  0
  2  3  1  0  0  0
  3  4  1  0  0  0
  3  6  1  0  0  0
  6  7  2  0  0  0
  7  8  1  0  0  0
  8  9  2  0  0  0
  9 10  1  0  0  0
 10 11  2  0  0  0
  3 12  1  0  0  0
 12 13  2  0  0  0
 13 14  1  0  0  0
 14 15  2  0  0  0
 15 16  1  0  0  0
 16 17  2  0  0  0
 25 19  1  0  0  0
 30 26  1  0  0  0
 11  6  1  0  0  0
 17 12  1  0  0  0
 26 21  1  0  0  0
  4  5  1  0  0  0
M  CHG 1  26   1
M  END
> <minimizedAffinity>
-10.31795

$$$$
OCNT-2328814


 18 20  0  0  0  0  0  0  0  0999 V2000
   -5.4617   22.8424    4.8224 C   0  0  0  0  0  0  0  0  0  0  0  0
   -5.8991   23.2013    3.4492 C   0  0  0  0  0  0  0  0  0  0  0  0
   -6.7003   22.4748    2.6967 N   0  0  0  0  0  0  0  0  0  0  0  0
   -6.8492   23.1694    1.5249 C   0  0  0  0  0  0  0  0  0  0  0  0
   -6.1199   24.3542    1.5492 C   0  0  0  0  0  0  0  0  0  0  0  0
   -6.1017   25.2475    0.4691 C   0  0  0  0  0  0  0  0  0  0  0  0
   -6.8566   24.9034   -0.6587 C   0  0  0  0  0  0  0  0  0  0  0  0
   -7.5947   23.7201   -0.7029 C   0  0  0  0  0  0  0  0  0  0  0  0
   -7.5996   22.8410    0.3862 C   0  0  0  0  0  0  0  0  0  0  0  0
   -5.5232   24.3553    2.7921 N   0  0  0  0  0  0  0  0  0  0  0  0
   -4.6089   25.3714    3.2940 C   0  0  0  0  0  0  0  0  0  0  0  0
   -5.3235   26.5537    3.9068 C   0  0  0  0  0  0  0  0  0  0  0  0
   -5.4762   27.7606    3.2048 C   0  0  0  0  0  0  0  0  0  0  0  0
   -6.1207   28.8510    3.7949 C   0  0  0  0  0  0  0  0  0  0  0  0
   -6.6076   28.7477    5.0950 C   0  0  0  0  0  0  0  0  0  0  0  0
   -7.3988   30.0906    5.8226 Cl  0  0  0  0  0  0  0  0  0  0  0  0
   -6.4533   27.5637    5.8115 C   0  0  0  0  0  0  0  0  0  0  0  0
   -5.8101   26.4724    5.2218 C   0  0  0  0  0  0  0  0  0  0  0  0
  1  2  1  0  0  0
  2  3  2  0  0  0
  3  4  1  0  0  0
  4  5  1  0  0  0
  5  6  2  0  0  0
  6  7  1  0  0  0
  7  8  2  0  0  0
  8  9  1  0  0  0
  5 10  1  0  0  0
 10 11  1  0  0  0
 11 12  1  0  0  0
 12 13  1  0  0  0
 13 14  2  0  0  0
 14 15  1  0  0  0
 15 16  1  0  0  0
 15 17  2  0  0  0
 17 18  1  0  0  0
 10  2  1  0  0  0
 18 12  2  0  0  0
  9  4  2  0  0  0
M  END
> <minimizedAffinity>
-8.24694

$$$$
OCNT-2328816


 36 39  0  0  0  0  0  0  0  0999 V2000
   -5.3884   26.2719    4.9501 C   0  0  0  0  0  0  0  0  0  0  0  0
   -6.4749   27.0100    5.4802 C   0  0  0  0  0  0  0  0  0  0  0  0
   -6.2857   28.1614    6.2493 C   0  0  0  0  0  0  0  0  0  0  0  0
   -7.6527   29.0072    6.8657 Cl  0  0  0  0  0  0  0  0  0  0  0  0
   -5.0096   28.6343    6.5174 C   0  0  0  0  0  0  0  0  0  0  0  0
   -3.9285   27.9370    5.9985 C   0  0  0  0  0  0  0  0  0  0  0  0
   -4.0941   26.7551    5.2078 C   0  0  0  0  0  0  0  0  0  0  0  0
   -2.7554   26.2774    4.8068 C   0  0  0  0  0  0  0  0  0  0  0  0
   -2.3519   25.1938    4.0361 C   0  0  0  0  0  0  0  0  0  0  0  0
   -0.9868   24.9732    3.8056 C   0  0  0  0  0  0  0  0  0  0  0  0
   -0.0258   25.8336    4.3440 C   0  0  0  0  0  0  0  0  0  0  0  0
    1.6428   25.5369    4.0442 Cl  0  0  0  0  0  0  0  0  0  0  0  0
   -0.4029   26.9262    5.1175 C   0  0  0  0  0  0  0  0  0  0  0  0
   -1.7597   27.1354    5.3383 C   0  0  0  0  0  0  0  0  0  0  0  0
   -2.4681   28.1932    6.0968 C   0  0  0  0  0  0  0  0  0  0  0  0
   -1.8062   29.1793    6.7302 C   0  0  0  0  0  0  0  0  0  0  0  0
   -2.3829   30.2797    7.5018 C   0  0  0  0  0  0  0  0  0  0  0  0
   -2.9357   31.3838    6.8423 C   0  0  0  0  0  0  0  0  0  0  0  0
   -3.4864   32.4357    7.5785 C   0  0  0  0  0  0  0  0  0  0  0  0
   -3.4804   32.3834    8.9715 C   0  0  0  0  0  0  0  0  0  0  0  0
   -4.1605   33.6781    9.8771 Cl  0  0  0  0  0  0  0  0  0  0  0  0
   -2.9278   31.2895    9.6360 C   0  0  0  0  0  0  0  0  0  0  0  0
   -2.3764   30.2370    8.9010 C   0  0  0  0  0  0  0  0  0  0  0  0
   -5.6994   25.0461    4.1088 C   0  0  0  0  0  0  0  0  0  0  0  0
   -6.9616   24.5075    4.5205 O   0  0  0  0  0  0  0  0  0  0  0  0
   -7.0032   23.6096    4.1533 H   0  0  0  0  0  0  0  0  0  0  0  0
   -5.7166   25.4089    2.5944 C   0  0  0  0  0  0  0  0  0  0  0  0
   -5.6331   24.3301    1.5823 N   0  0  0  0  0  0  0  0  0  0  0  0
   -5.5994   24.7889    0.1892 C   0  0  0  0  0  0  0  0  0  0  0  0
   -6.9910   25.2115   -0.3010 C   0  0  0  0  0  0  0  0  0  0  0  0
   -7.3849   22.7177   -0.7008 C   0  0  0  0  0  0  0  0  0  0  0  0
   -7.9979   24.0571   -0.3216 C   0  0  0  0  0  0  0  0  0  0  0  0
   -4.6044   23.3265    1.8883 C   0  0  0  0  0  0  0  0  0  0  0  0
   -5.2141   21.9162    1.9089 C   0  0  0  0  0  0  0  0  0  0  0  0
   -5.7354   21.5078    3.2899 C   0  0  0  0  0  0  0  0  0  0  0  0
   -7.2240   21.1962    3.3068 C   0  0  0  0  0  0  0  0  0  0  0  0
 31 32  1  0  0  0
 32 30  1  0  0  0
 30 29  1  0  0  0
 29 28  1  0  0  0
 28 33  1  0  0  0
 33 34  1  0  0  0
 34 35  1  0  0  0
 35 36  1  0  0  0
 28 27  1  0  0  0
 27 24  1  0  0  0
 24 25  1  0  0  0
 24  1  1  0  0  0
  1  2  2  0  0  0
  2  3  1  0  0  0
  3  4  1  0  0  0
  3  5  2  0  0  0
  5  6  1  0  0  0
  6  7  2  0  0  0
  7  8  1  0  0  0
  8  9  1  0  0  0
  9 10  2  0  0  0
 10 11  1  0  0  0
 11 12  1  0  0  0
 11 13  2  0  0  0
 13 14  1  0  0  0
 14 15  1  0  0  0
 15 16  2  0  0  0
 16 17  1  0  0  0
 17 18  1  0  0  0
 18 19  2  0  0  0
 19 20  1  0  0  0
 20 21  1  0  0  0
 20 22  2  0  0  0
 22 23  1  0  0  0
  7  1  1  0  0  0
 14  8  2  0  0  0
 23 17  2  0  0  0
 15  6  1  0  0  0
 25 26  1  0  0  0
M  END
> <minimizedAffinity>
-8.95738

$$$$
OCNT-2328824


 35 38  0  0  0  0  0  0  0  0999 V2000
   -4.2902   26.0409    5.0807 C   0  0  0  0  0  0  0  0  0  0  0  0
   -5.2608   26.7388    5.7344 C   0  0  0  0  0  0  0  0  0  0  0  0
   -6.6649   26.3164    5.7079 C   0  0  0  0  0  0  0  0  0  0  0  0
   -7.6355   26.9886    6.3446 C   0  0  0  0  0  0  0  0  0  0  0  0
   -9.5912   26.3415    6.2638 I   0  0  0  0  0  0  0  0  0  0  0  0
   -7.3125   28.2216    7.1269 C   0  0  0  0  0  0  0  0  0  0  0  0
   -8.1856   28.8419    7.7277 O   0  0  0  0  0  0  0  0  0  0  0  0
   -5.8775   28.6586    7.1465 C   0  0  0  0  0  0  0  0  0  0  0  0
   -5.4347   30.3841    8.2279 I   0  0  0  0  0  0  0  0  0  0  0  0
   -4.9305   27.9557    6.4928 C   0  0  0  0  0  0  0  0  0  0  0  0
   -3.6127   28.3889    6.5384 O   0  0  0  0  0  0  0  0  0  0  0  0
   -2.6194   27.7076    5.8902 C   0  0  0  0  0  0  0  0  0  0  0  0
   -1.3080   28.2088    5.9797 C   0  0  0  0  0  0  0  0  0  0  0  0
   -0.9042   29.9598    7.0893 I   0  0  0  0  0  0  0  0  0  0  0  0
   -0.2576   27.5499    5.3308 C   0  0  0  0  0  0  0  0  0  0  0  0
    1.0279   28.0167    5.3996 O   0  0  0  0  0  0  0  0  0  0  0  0
   -0.5237   26.3946    4.5966 C   0  0  0  0  0  0  0  0  0  0  0  0
    0.9840   25.3464    3.5903 I   0  0  0  0  0  0  0  0  0  0  0  0
   -1.8303   25.8998    4.5126 C   0  0  0  0  0  0  0  0  0  0  0  0
   -2.8947   26.5512    5.1595 C   0  0  0  0  0  0  0  0  0  0  0  0
    1.0363   28.8164    5.9560 H   0  0  0  0  0  0  0  0  0  0  0  0
   -4.9071   24.8734    2.9293 C   0  0  0  0  0  0  0  0  0  0  0  0
   -5.2273   23.7302    2.1831 C   0  0  0  0  0  0  0  0  0  0  0  0
   -5.5969   23.8781    0.4906 Cl  0  0  0  0  0  0  0  0  0  0  0  0
   -5.2585   22.4777    2.8197 C   0  0  0  0  0  0  0  0  0  0  0  0
   -5.6507   21.0489    1.9042 Cl  0  0  0  0  0  0  0  0  0  0  0  0
   -4.9750   22.3788    4.1966 C   0  0  0  0  0  0  0  0  0  0  0  0
   -5.0111   20.8272    4.9867 Cl  0  0  0  0  0  0  0  0  0  0  0  0
   -4.6641   23.5364    4.9379 C   0  0  0  0  0  0  0  0  0  0  0  0
   -4.3124   23.4261    6.6406 Cl  0  0  0  0  0  0  0  0  0  0  0  0
   -4.6328   24.7999    4.3103 C   0  0  0  0  0  0  0  0  0  0  0  0
   -5.7715   27.0007    2.2673 O   0  0  0  0  0  0  0  0  0  0  0  0
   -4.8750   26.1837    2.2685 C   0  0  0  0  0  0  0  0  0  0  0  0
   -3.6755   26.3773    1.7016 O   0  0  0  0  0  0  0  0  0  0  0  0
   -3.7297   27.2590    1.2722 H   0  0  0  0  0  0  0  0  0  0  0  0
 32 33  2  0  0  0
 33 34  1  0  0  0
 33 22  1  0  0  0
 22 23  2  0  0  0
 23 24  1  0  0  0
 23 25  1  0  0  0
 25 26  1  0  0  0
 25 27  2  0  0  0
 27 28  1  0  0  0
 27 29  1  0  0  0
 29 30  1  0  0  0
 29 31  2  0  0  0
 31  1  1  0  0  0
  1  2  2  0  0  0
  2  3  1  0  0  0
  3  4  2  0  0  0
  4  5  1  0  0  0
  4  6  1  0  0  0
  6  7  2  0  0  0
  6  8  1  0  0  0
  8  9  1  0  0  0
  8 10  2  0  0  0
 10 11  1  0  0  0
 11 12  1  0  0  0
 12 13  1  0  0  0
 13 14  1  0  0  0
 13 15  2  0  0  0
 15 16  1  0  0  0
 15 17  1  0  0  0
 17 18  1  0  0  0
 17 19  2  0  0  0
 19 20  1  0  0  0
 31 22  1  0  0  0
 20  1  1  0  0  0
 10  2  1  0  0  0
 20 12  2  0  0  0
 34 35  1  0  0  0
 16 21  1  0  0  0
M  END
> <minimizedAffinity>
3.95736

$$$$
OCNT-2328829


 19 20  0  0  0  0  0  0  0  0999 V2000
   -0.2091   29.6386    7.0593 C   0  0  0  0  0  0  0  0  0  0  0  0
    0.0988   29.4583    8.5447 C   0  0  0  0  0  0  0  0  0  0  0  0
   -0.2128   30.6521    9.2782 O   0  0  0  0  0  0  0  0  0  0  0  0
   -1.4334   31.1614    8.9245 C   0  0  0  0  0  0  0  0  0  0  0  0
   -2.1181   30.7740    7.7707 C   0  0  0  0  0  0  0  0  0  0  0  0
   -3.3739   31.3099    7.4909 C   0  0  0  0  0  0  0  0  0  0  0  0
   -3.9331   32.2573    8.3503 C   0  0  0  0  0  0  0  0  0  0  0  0
   -3.2366   32.6647    9.4891 C   0  0  0  0  0  0  0  0  0  0  0  0
   -1.9851   32.1172    9.7756 C   0  0  0  0  0  0  0  0  0  0  0  0
   -1.6219   29.8655    6.8741 O   0  0  0  0  0  0  0  0  0  0  0  0
    0.1520   28.4038    6.2205 C   0  0  0  0  0  0  0  0  0  0  0  0
   -0.3458   27.1606    6.7881 N   0  0  0  0  0  0  0  0  0  0  0  0
    0.0743   26.9339    7.6842 H   0  0  0  0  0  0  0  0  0  0  0  0
   -2.1954   26.1973    5.6633 N   0  0  0  0  0  0  0  0  0  0  0  0
   -1.6123   26.7115    6.6787 C   0  0  0  0  0  0  0  0  0  0  0  0
   -2.2935   26.8552    7.8299 N   0  0  0  0  0  0  0  0  0  0  0  0
   -1.5446   26.1159    4.8833 H   0  0  0  0  0  0  0  0  0  0  0  0
   -3.2035   26.4130    7.7267 H   0  0  0  0  0  0  0  0  0  0  0  0
   -1.8110   26.4465    8.6207 H   0  0  0  0  0  0  0  0  0  0  0  0
 14 15  2  0  0  0
 15 16  1  0  0  0
 15 12  1  0  0  0
 12 11  1  0  0  0
 11  1  1  0  0  0
  1  2  1  0  0  0
  2  3  1  0  0  0
  3  4  1  0  0  0
  4  5  1  0  0  0
  5  6  2  0  0  0
  6  7  1  0  0  0
  7  8  2  0  0  0
  8  9  1  0  0  0
  5 10  1  0  0  0
 10  1  1  0  0  0
  9  4  2  0  0  0
 14 17  1  0  0  0
 16 18  1  0  0  0
 16 19  1  0  0  0
 12 13  1  0  0  0
M  END
> <minimizedAffinity>
-6.98764

$$$$
OCNT-2328835


 27 30  0  0  0  0  0  0  0  0999 V2000
   -5.2139   25.3941    3.9949 N   0  0  0  0  0  0  0  0  0  0  0  0
   -5.3558   24.5002    5.0289 N   0  0  0  0  0  0  0  0  0  0  0  0
   -5.6178   23.2543    4.7741 C   0  0  0  0  0  0  0  0  0  0  0  0
   -5.7613   22.7253    3.4004 C   0  0  0  0  0  0  0  0  0  0  0  0
   -6.0851   21.3930    3.1142 C   0  0  0  0  0  0  0  0  0  0  0  0
   -6.1906   20.9656    1.7873 C   0  0  0  0  0  0  0  0  0  0  0  0
   -5.9724   21.8615    0.7431 C   0  0  0  0  0  0  0  0  0  0  0  0
   -5.6517   23.1883    1.0251 C   0  0  0  0  0  0  0  0  0  0  0  0
   -5.5490   23.6185    2.3559 C   0  0  0  0  0  0  0  0  0  0  0  0
   -5.2189   25.0245    2.6507 C   0  0  0  0  0  0  0  0  0  0  0  0
   -4.9751   25.7890    1.7197 O   0  0  0  0  0  0  0  0  0  0  0  0
   -3.8911   30.3521    6.8489 C   0  0  0  0  0  0  0  0  0  0  0  0
   -4.4628   29.1877    6.1706 N   0  0  0  0  0  0  0  0  0  0  0  0
   -5.7210   28.7756    6.7988 C   0  0  0  0  0  0  0  0  0  0  0  0
   -6.6201   27.8962    5.9073 C   0  0  0  0  0  0  0  0  0  0  0  0
   -6.1105   27.6796    4.4784 C   0  0  0  0  0  0  0  0  0  0  0  0
   -4.8570   26.7818    4.3708 C   0  0  0  0  0  0  0  0  0  0  0  0
   -3.9747   26.7480    5.6273 C   0  0  0  0  0  0  0  0  0  0  0  0
   -3.4641   28.1151    6.0823 C   0  0  0  0  0  0  0  0  0  0  0  0
   -5.7817   22.3293    5.9736 C   0  0  0  0  0  0  0  0  0  0  0  0
   -7.1894   22.2982    6.5267 C   0  0  0  0  0  0  0  0  0  0  0  0
   -7.4166   21.9110    7.8560 C   0  0  0  0  0  0  0  0  0  0  0  0
   -8.7117   21.8978    8.3798 C   0  0  0  0  0  0  0  0  0  0  0  0
   -9.7861   22.2839    7.5821 C   0  0  0  0  0  0  0  0  0  0  0  0
  -11.3802   22.2670    8.2288 Cl  0  0  0  0  0  0  0  0  0  0  0  0
   -9.5759   22.6903    6.2672 C   0  0  0  0  0  0  0  0  0  0  0  0
   -8.2810   22.7042    5.7436 C   0  0  0  0  0  0  0  0  0  0  0  0
 12 13  1  0  0  0
 13 14  1  0  0  0
 14 15  1  0  0  0
 15 16  1  0  0  0
 16 17  1  0  0  0
 17  1  1  0  0  0
  1  2  1  0  0  0
  2  3  2  0  0  0
  3 20  1  0  0  0
 20 21  1  0  0  0
 21 22  1  0  0  0
 22 23  2  0  0  0
 23 24  1  0  0  0
 24 25  1  0  0  0
 24 26  2  0  0  0
 26 27  1  0  0  0
  3  4  1  0  0  0
  4  5  2  0  0  0
  5  6  1  0  0  0
  6  7  2  0  0  0
  7  8  1  0  0  0
  8  9  2  0  0  0
  9 10  1  0  0  0
 10 11  2  0  0  0
 17 18  1  0  0  0
 18 19  1  0  0  0
 19 13  1  0  0  0
 10  1  1  0  0  0
 27 21  2  0  0  0
  9  4  1  0  0  0
M  END
> <minimizedAffinity>
-10.11955

$$$$
OCNT-2328839


 24 26  0  0  0  0  0  0  0  0999 V2000
   -4.9605   25.3869    2.9289 C   0  0  0  0  0  0  0  0  0  0  0  0
   -4.8798   24.5069    4.1085 O   0  0  0  0  0  0  0  0  0  0  0  0
   -5.8185   24.9381    5.1104 C   0  0  0  0  0  0  0  0  0  0  0  0
   -5.9787   26.3821    4.8247 C   0  0  0  0  0  0  0  0  0  0  0  0
   -5.4814   26.6619    3.5538 C   0  0  0  0  0  0  0  0  0  0  0  0
   -5.5325   27.9617    3.0657 C   0  0  0  0  0  0  0  0  0  0  0  0
   -6.0891   28.9677    3.8649 C   0  0  0  0  0  0  0  0  0  0  0  0
   -6.5936   28.6721    5.1427 C   0  0  0  0  0  0  0  0  0  0  0  0
   -6.5424   27.3626    5.6289 C   0  0  0  0  0  0  0  0  0  0  0  0
   -5.8942   24.6861    1.9336 C   0  0  0  0  0  0  0  0  0  0  0  0
   -6.1766   25.2085    0.6578 C   0  0  0  0  0  0  0  0  0  0  0  0
   -7.0178   24.5277   -0.2276 C   0  0  0  0  0  0  0  0  0  0  0  0
   -7.5815   23.3170    0.1500 C   0  0  0  0  0  0  0  0  0  0  0  0
   -8.3872   22.6688   -0.7011 F   0  0  0  0  0  0  0  0  0  0  0  0
   -7.3199   22.7704    1.3972 C   0  0  0  0  0  0  0  0  0  0  0  0
   -6.4800   23.4497    2.2819 C   0  0  0  0  0  0  0  0  0  0  0  0
   -7.1635   29.7142    5.9458 C   0  0  0  0  0  0  0  0  0  0  0  0
   -7.6246   30.5580    6.5957 N   0  0  0  0  0  0  0  0  0  0  0  0
   -3.5013   25.4688    2.4152 C   0  0  0  0  0  0  0  0  0  0  0  0
   -2.3976   25.1115    3.4190 C   0  0  0  0  0  0  0  0  0  0  0  0
   -1.9446   26.3593    4.1937 C   0  0  0  0  0  0  0  0  0  0  0  0
    0.4856   26.3185    4.0044 C   0  0  0  0  0  0  0  0  0  0  0  0
   -0.6656   26.1582    4.8953 N   0  0  0  0  0  0  0  0  0  0  0  0
   -0.5548   27.1017    6.0121 C   0  0  0  0  0  0  0  0  0  0  0  0
 22 23  1  0  0  0
 23 24  1  0  0  0
 23 21  1  0  0  0
 21 20  1  0  0  0
 20 19  1  0  0  0
  1 19  1  0  0  0
  1 10  1  0  0  0
 10 11  1  0  0  0
 11 12  2  0  0  0
 12 13  1  0  0  0
 13 14  1  0  0  0
 13 15  2  0  0  0
 15 16  1  0  0  0
  1  2  1  0  0  0
  2  3  1  0  0  0
  3  4  1  0  0  0
  4  5  2  0  0  0
  5  6  1  0  0  0
  6  7  2  0  0  0
  7  8  1  0  0  0
  8 17  1  0  0  0
 17 18  3  0  0  0
  8  9  2  0  0  0
  5  1  1  0  0  0
 16 10  2  0  0  0
  9  4  1  0  0  0
M  END
> <minimizedAffinity>
-8.67900

$$$$
OCNT-2328864


 22 24  0  0  0  0  0  0  0  0999 V2000
   -3.5661   25.7214    3.5404 C   0  0  0  0  0  0  0  0  0  0  0  0
   -4.5045   26.8631    3.8792 C   0  0  0  0  0  0  0  0  0  0  0  0
   -5.4221   27.4694    3.0388 C   0  0  0  0  0  0  0  0  0  0  0  0
   -6.1498   28.5113    3.6822 C   0  0  0  0  0  0  0  0  0  0  0  0
   -5.7719   28.6666    4.9959 C   0  0  0  0  0  0  0  0  0  0  0  0
   -4.5513   27.5605    5.4484 S   0  0  0  0  0  0  0  0  0  0  0  0
   -2.1057   26.2002    3.5664 C   0  0  0  0  0  0  0  0  0  0  0  0
   -1.3644   25.8990    4.8749 C   0  0  0  0  0  0  0  0  0  0  0  0
    0.6977   26.4253    3.6778 C   0  0  0  0  0  0  0  0  0  0  0  0
    0.0276   26.3350    4.9630 N   0  0  0  0  0  0  0  0  0  0  0  0
    0.1011   27.2132    5.4761 H   0  0  0  0  0  0  0  0  0  0  0  0
   -3.8828   25.2374    2.2254 O   0  0  0  0  0  0  0  0  0  0  0  0
   -4.5306   24.0250    2.1640 C   0  0  0  0  0  0  0  0  0  0  0  0
   -4.2084   22.9641    3.0169 C   0  0  0  0  0  0  0  0  0  0  0  0
   -4.8944   21.7561    2.9238 C   0  0  0  0  0  0  0  0  0  0  0  0
   -5.9183   21.6062    1.9907 C   0  0  0  0  0  0  0  0  0  0  0  0
   -6.2848   22.6676    1.1499 C   0  0  0  0  0  0  0  0  0  0  0  0
   -7.3322   22.5186    0.2254 C   0  0  0  0  0  0  0  0  0  0  0  0
   -7.7107   23.5734   -0.6051 C   0  0  0  0  0  0  0  0  0  0  0  0
   -7.0495   24.7923   -0.5197 C   0  0  0  0  0  0  0  0  0  0  0  0
   -6.0056   24.9546    0.3930 C   0  0  0  0  0  0  0  0  0  0  0  0
   -5.5959   23.9019    1.2394 C   0  0  0  0  0  0  0  0  0  0  0  0
  9 10  1  0  0  0
 10  8  1  0  0  0
  8  7  1  0  0  0
  7  1  1  0  0  0
  1 12  1  0  0  0
 12 13  1  0  0  0
 13 14  2  0  0  0
 14 15  1  0  0  0
 15 16  2  0  0  0
 16 17  1  0  0  0
 17 18  2  0  0  0
 18 19  1  0  0  0
 19 20  2  0  0  0
 20 21  1  0  0  0
 21 22  2  0  0  0
  1  2  1  0  0  0
  2  3  2  0  0  0
  3  4  1  0  0  0
  4  5  2  0  0  0
  5  6  1  0  0  0
 22 13  1  0  0  0
  6  2  1  0  0  0
 22 17  1  0  0  0
 10 11  1  0  0  0
M  END
> <minimizedAffinity>
-8.67917

$$$$
OCNT-2328868


 20 20  0  0  0  0  0  0  0  0999 V2000
   -5.4920   25.9061    2.2966 C   0  0  0  0  0  0  0  0  0  0  0  0
   -6.0745   25.8273    1.2285 O   0  0  0  0  0  0  0  0  0  0  0  0
   -5.8051   26.9184    3.3194 C   0  0  0  0  0  0  0  0  0  0  0  0
   -5.8111   28.2572    2.9093 C   0  0  0  0  0  0  0  0  0  0  0  0
   -6.0948   29.2694    3.8296 C   0  0  0  0  0  0  0  0  0  0  0  0
   -6.3438   28.9648    5.1699 C   0  0  0  0  0  0  0  0  0  0  0  0
   -6.7441   29.9702    6.0549 N   0  0  0  0  0  0  0  0  0  0  0  0
   -6.4136   27.6213    5.5520 C   0  0  0  0  0  0  0  0  0  0  0  0
   -6.1325   26.5965    4.6388 C   0  0  0  0  0  0  0  0  0  0  0  0
   -6.2786   24.9680    5.1995 Cl  0  0  0  0  0  0  0  0  0  0  0  0
   -6.3950   30.8960    5.8253 H   0  0  0  0  0  0  0  0  0  0  0  0
   -6.6158   29.7444    7.0369 H   0  0  0  0  0  0  0  0  0  0  0  0
   -4.4151   25.1875    2.6922 O   0  0  0  0  0  0  0  0  0  0  0  0
   -4.2081   23.9481    1.9899 C   0  0  0  0  0  0  0  0  0  0  0  0
   -4.9358   22.8004    2.7108 C   0  0  0  0  0  0  0  0  0  0  0  0
   -6.0841   22.1826    2.0172 N   0  0  0  0  0  0  0  0  0  0  0  0
   -7.3362   22.7907   -0.0757 C   0  0  0  0  0  0  0  0  0  0  0  0
   -6.0274   22.3183    0.5517 C   0  0  0  0  0  0  0  0  0  0  0  0
   -7.3607   22.6690    2.5670 C   0  0  0  0  0  0  0  0  0  0  0  0
   -8.0629   21.6328    3.4391 C   0  0  0  0  0  0  0  0  0  0  0  0
 17 18  1  0  0  0
 18 16  1  0  0  0
 16 19  1  0  0  0
 19 20  1  0  0  0
 16 15  1  0  0  0
 15 14  1  0  0  0
 14 13  1  0  0  0
 13  1  1  0  0  0
  1  2  2  0  0  0
  1  3  1  0  0  0
  3  4  1  0  0  0
  4  5  2  0  0  0
  5  6  1  0  0  0
  6  7  1  0  0  0
  6  8  2  0  0  0
  8  9  1  0  0  0
  9 10  1  0  0  0
  9  3  2  0  0  0
  7 11  1  0  0  0
  7 12  1  0  0  0
M  END
> <minimizedAffinity>
-6.42797

$$$$
OCNT-2328870


 22 25  0  0  0  0  0  0  0  0999 V2000
   -1.0298   26.2745    4.7327 C   0  0  0  0  0  0  0  0  0  0  0  0
   -2.4475   26.3860    4.3959 N   0  0  0  0  0  0  0  0  0  0  0  0
   -2.7053   25.8469    3.0493 C   0  0  0  0  0  0  0  0  0  0  0  0
   -4.1892   25.9431    2.6519 C   0  0  0  0  0  0  0  0  0  0  0  0
   -5.0888   25.2623    3.6762 C   0  0  0  0  0  0  0  0  0  0  0  0
   -6.0067   24.2975    3.3911 C   0  0  0  0  0  0  0  0  0  0  0  0
   -6.7477   23.6458    4.4975 C   0  0  0  0  0  0  0  0  0  0  0  0
   -7.7774   24.3111    5.1744 C   0  0  0  0  0  0  0  0  0  0  0  0
   -8.4620   23.6723    6.2078 C   0  0  0  0  0  0  0  0  0  0  0  0
   -8.1288   22.3653    6.5609 C   0  0  0  0  0  0  0  0  0  0  0  0
   -7.1178   21.6883    5.8760 C   0  0  0  0  0  0  0  0  0  0  0  0
   -6.4252   22.3203    4.8355 C   0  0  0  0  0  0  0  0  0  0  0  0
   -5.3647   21.5927    4.0468 C   0  0  0  0  0  0  0  0  0  0  0  0
   -5.8142   21.3005    2.6093 C   0  0  0  0  0  0  0  0  0  0  0  0
   -6.1159   22.4451    1.6621 C   0  0  0  0  0  0  0  0  0  0  0  0
   -6.2116   23.8025    2.0023 C   0  0  0  0  0  0  0  0  0  0  0  0
   -6.5527   24.7645    1.1009 N   0  0  0  0  0  0  0  0  0  0  0  0
   -6.7837   24.3883   -0.1721 C   0  0  0  0  0  0  0  0  0  0  0  0
   -6.7003   23.0830   -0.6091 C   0  0  0  0  0  0  0  0  0  0  0  0
   -6.3673   22.1053    0.3203 C   0  0  0  0  0  0  0  0  0  0  0  0
   -4.7752   25.7882    5.0717 C   0  0  0  0  0  0  0  0  0  0  0  0
   -3.2747   25.6829    5.3911 C   0  0  0  0  0  0  0  0  0  0  0  0
  1  2  1  0  0  0
  2  3  1  0  0  0
  3  4  1  0  0  0
  4  5  1  0  0  0
  5  6  2  0  0  0
  6  7  1  0  0  0
  7  8  2  0  0  0
  8  9  1  0  0  0
  9 10  2  0  0  0
 10 11  1  0  0  0
 11 12  2  0  0  0
 12 13  1  0  0  0
 13 14  1  0  0  0
 14 15  1  0  0  0
 15 16  2  0  0  0
 16 17  1  0  0  0
 17 18  2  0  0  0
 18 19  1  0  0  0
 19 20  2  0  0  0
  5 21  1  0  0  0
 21 22  1  0  0  0
 22  2  1  0  0  0
 16  6  1  0  0  0
 12  7  1  0  0  0
 20 15  1  0  0  0
M  END
> <minimizedAffinity>
-8.92547

$$$$
OCNT-2328890


 13 13  0  0  0  0  0  0  0  0999 V2000
   -2.4403   31.6580    7.3035 C   0  0  0  0  0  0  0  0  0  0  0  0
   -1.2543   30.7509    7.5374 C   0  0  0  0  0  0  0  0  0  0  0  0
   -0.7332   30.5750    8.8262 C   0  0  0  0  0  0  0  0  0  0  0  0
    0.3722   29.7486    9.0347 C   0  0  0  0  0  0  0  0  0  0  0  0
    0.9673   29.0930    7.9584 C   0  0  0  0  0  0  0  0  0  0  0  0
    0.4582   29.2629    6.6723 C   0  0  0  0  0  0  0  0  0  0  0  0
   -0.6470   30.0883    6.4619 C   0  0  0  0  0  0  0  0  0  0  0  0
   -3.7089   30.9146    6.8498 C   0  0  0  0  0  0  0  0  0  0  0  0
   -5.1405   30.3170    5.0302 N   0  0  0  0  0  0  0  0  0  0  0  0
   -4.2277   31.3222    5.5301 N   0  0  0  0  0  0  0  0  0  0  0  0
   -5.9898   30.2888    5.6037 H   0  0  0  0  0  0  0  0  0  0  0  0
   -5.4761   30.5746    4.0967 H   0  0  0  0  0  0  0  0  0  0  0  0
   -3.4219   31.4432    4.9032 H   0  0  0  0  0  0  0  0  0  0  0  0
  9 10  1  0  0  0
 10  8  1  0  0  0
  8  1  1  0  0  0
  1  2  1  0  0  0
  2  3  2  0  0  0
  3  4  1  0  0  0
  4  5  2  0  0  0
  5  6  1  0  0  0
  6  7  2  0  0  0
  7  2  1  0  0  0
  9 11  1  0  0  0
  9 12  1  0  0  0
 10 13  1  0  0  0
M  END
> <minimizedAffinity>
-6.07278

$$$$
OCNT-2328898


 25 26  0  0  0  0  0  0  0  0999 V2000
   -4.7004   26.9202    5.7076 N   0  0  0  0  0  0  0  0  0  0  0  0
   -5.2116   26.0745    5.4671 H   0  0  0  0  0  0  0  0  0  0  0  0
   -3.3181   26.7620    5.5145 C   0  0  0  0  0  0  0  0  0  0  0  0
   -2.7954   26.0358    4.4434 C   0  0  0  0  0  0  0  0  0  0  0  0
   -1.4248   25.9404    4.2931 C   0  0  0  0  0  0  0  0  0  0  0  0
   -0.5350   26.5313    5.1099 N   0  0  0  0  0  0  0  0  0  0  0  0
   -1.0103   27.2816    6.1114 C   0  0  0  0  0  0  0  0  0  0  0  0
   -0.0849   27.9181    6.9247 C   0  0  0  0  0  0  0  0  0  0  0  0
   -0.4867   28.7388    7.9738 C   0  0  0  0  0  0  0  0  0  0  0  0
    0.6927   29.5142    8.9575 Cl  0  0  0  0  0  0  0  0  0  0  0  0
   -1.8345   28.9425    8.2252 C   0  0  0  0  0  0  0  0  0  0  0  0
   -2.7813   28.3071    7.4219 C   0  0  0  0  0  0  0  0  0  0  0  0
   -2.3958   27.4528    6.3577 C   0  0  0  0  0  0  0  0  0  0  0  0
   -5.4403   28.1336    5.3377 C   0  0  0  0  0  0  0  0  0  0  0  0
   -5.9703   27.9855    3.9084 C   0  0  0  0  0  0  0  0  0  0  0  0
   -6.5967   28.3010    6.3515 C   0  0  0  0  0  0  0  0  0  0  0  0
   -6.8791   29.7557    6.7593 C   0  0  0  0  0  0  0  0  0  0  0  0
   -5.6428   30.5078    7.2694 C   0  0  0  0  0  0  0  0  0  0  0  0
   -5.6405   30.9125    8.6800 N   0  0  0  0  0  0  0  0  0  0  0  0
   -3.6502   32.2513    9.3850 C   0  0  0  0  0  0  0  0  0  0  0  0
   -5.1038   32.2524    8.9230 C   0  0  0  0  0  0  0  0  0  0  0  0
   -5.1960   29.8655    9.6102 C   0  0  0  0  0  0  0  0  0  0  0  0
   -6.2589   29.1699   10.4705 C   0  0  0  0  0  0  0  0  0  0  0  0
   -5.7156   27.9710   11.0202 O   0  0  0  0  0  0  0  0  0  0  0  0
   -6.4229   27.5503   11.5385 H   0  0  0  0  0  0  0  0  0  0  0  0
 20 21  1  0  0  0
 21 19  1  0  0  0
 19 22  1  0  0  0
 22 23  1  0  0  0
 23 24  1  0  0  0
 19 18  1  0  0  0
 18 17  1  0  0  0
 17 16  1  0  0  0
 16 14  1  0  0  0
 14 15  1  0  0  0
 14  1  1  0  0  0
  1  3  1  0  0  0
  3  4  2  0  0  0
  4  5  1  0  0  0
  5  6  2  0  0  0
  6  7  1  0  0  0
  7  8  2  0  0  0
  8  9  1  0  0  0
  9 10  1  0  0  0
  9 11  2  0  0  0
 11 12  1  0  0  0
 12 13  2  0  0  0
 13  3  1  0  0  0
 13  7  1  0  0  0
 24 25  1  0  0  0
  1  2  1  0  0  0
M  END
> <minimizedAffinity>
-7.71983

$$$$
OCNT-2328911


 26 28  0  0  0  0  0  0  0  0999 V2000
   -2.6809   27.3555    6.5776 C   0  0  0  0  0  0  0  0  0  0  0  0
   -3.1698   26.8967    5.2290 C   0  0  0  0  0  0  0  0  0  0  0  0
   -2.2535   26.2976    4.3400 C   0  0  0  0  0  0  0  0  0  0  0  0
   -2.6775   25.8794    3.0833 C   0  0  0  0  0  0  0  0  0  0  0  0
   -4.0015   26.0717    2.7485 C   0  0  0  0  0  0  0  0  0  0  0  0
   -4.9026   26.6430    3.5676 N   0  0  0  0  0  0  0  0  0  0  0  0
   -4.4936   27.0610    4.7945 C   0  0  0  0  0  0  0  0  0  0  0  0
   -0.9692   26.1746    4.8065 O   0  0  0  0  0  0  0  0  0  0  0  0
   -0.0273   25.4576    4.0012 C   0  0  0  0  0  0  0  0  0  0  0  0
    1.0898   26.3810    3.5386 C   0  0  0  0  0  0  0  0  0  0  0  0
    2.2914   25.7751    3.6992 F   0  0  0  0  0  0  0  0  0  0  0  0
    0.9718   26.6979    2.2310 F   0  0  0  0  0  0  0  0  0  0  0  0
    1.1207   27.5288    4.2499 F   0  0  0  0  0  0  0  0  0  0  0  0
   -5.5749   27.7075    5.6257 C   0  0  0  0  0  0  0  0  0  0  0  0
   -5.8823   29.4577    5.2321 S   0  0  0  0  0  0  0  0  0  0  0  0
   -7.2591   29.8410    5.6987 O   0  0  0  0  0  0  0  0  0  0  0  0
   -4.7388   30.1689    6.4248 C   0  0  0  0  0  0  0  0  0  0  0  0
   -4.8502   30.0609    7.7304 N   0  0  0  0  0  0  0  0  0  0  0  0
   -3.7752   30.7554    8.2329 C   0  0  0  0  0  0  0  0  0  0  0  0
   -3.3987   30.9820    9.5646 C   0  0  0  0  0  0  0  0  0  0  0  0
   -2.2415   31.7298    9.8184 C   0  0  0  0  0  0  0  0  0  0  0  0
   -1.4744   32.2412    8.7683 C   0  0  0  0  0  0  0  0  0  0  0  0
   -1.8330   32.0262    7.4323 C   0  0  0  0  0  0  0  0  0  0  0  0
   -2.9902   31.2781    7.2084 C   0  0  0  0  0  0  0  0  0  0  0  0
   -3.6278   30.8797    6.0640 N   0  0  0  0  0  0  0  0  0  0  0  0
   -3.3600   31.0758    5.1101 H   0  0  0  0  0  0  0  0  0  0  0  0
  1  2  1  0  0  0
  2  3  1  0  0  0
  3  8  1  0  0  0
  8  9  1  0  0  0
  9 10  1  0  0  0
 10 11  1  0  0  0
 10 12  1  0  0  0
 10 13  1  0  0  0
  3  4  2  0  0  0
  4  5  1  0  0  0
  5  6  2  0  0  0
  6  7  1  0  0  0
  7 14  1  0  0  0
 15 14  1  0  0  0
 15 16  2  0  0  0
 15 17  1  0  0  0
 17 18  2  0  0  0
 18 19  1  0  0  0
 19 20  2  0  0  0
 20 21  1  0  0  0
 21 22  2  0  0  0
 22 23  1  0  0  0
 23 24  2  0  0  0
 24 25  1  0  0  0
  7  2  2  0  0  0
 25 17  1  0  0  0
 24 19  1  0  0  0
 25 26  1  0  0  0
M  END
> <minimizedAffinity>
-8.71138

$$$$
OCNT-2328914


 33 35  0  0  0  0  0  0  0  0999 V2000
   -5.7571   27.4218    3.6373 C   0  0  0  0  0  0  0  0  0  0  0  0
   -5.8851   28.7790    3.3479 C   0  0  0  0  0  0  0  0  0  0  0  0
   -6.3425   29.6723    4.3244 C   0  0  0  0  0  0  0  0  0  0  0  0
   -6.6789   29.2240    5.6085 C   0  0  0  0  0  0  0  0  0  0  0  0
   -6.5282   27.8656    5.9026 C   0  0  0  0  0  0  0  0  0  0  0  0
   -6.0792   26.9735    4.9233 C   0  0  0  0  0  0  0  0  0  0  0  0
   -4.0651   25.9420    2.5201 C   0  0  0  0  0  0  0  0  0  0  0  0
   -3.0626   26.2312    3.1692 O   0  0  0  0  0  0  0  0  0  0  0  0
   -5.3361   26.4538    2.7077 N   0  0  0  0  0  0  0  0  0  0  0  0
   -6.0608   26.0494    2.1134 H   0  0  0  0  0  0  0  0  0  0  0  0
   -3.9636   24.9836    1.3420 C   0  0  0  0  0  0  0  0  0  0  0  0
   -8.1594   23.3799   -0.3298 N   0  0  0  0  0  0  0  0  0  0  0  0
   -7.0559   23.3710    0.4318 C   0  0  0  0  0  0  0  0  0  0  0  0
   -6.1493   24.3164    0.3846 N   0  0  0  0  0  0  0  0  0  0  0  0
   -5.1137   24.0336    1.2710 C   0  0  0  0  0  0  0  0  0  0  0  0
   -5.2826   22.8728    1.9993 C   0  0  0  0  0  0  0  0  0  0  0  0
   -6.7536   22.1125    1.5576 S   0  0  0  0  0  0  0  0  0  0  0  0
   -8.9641   22.8598   -0.0033 H   0  0  0  0  0  0  0  0  0  0  0  0
   -8.3907   24.2663   -0.7608 H   0  0  0  0  0  0  0  0  0  0  0  0
   -7.1898   30.1902    6.6507 C   0  0  0  0  0  0  0  0  0  0  0  0
   -6.1712   30.5254    7.7547 C   0  0  0  0  0  0  0  0  0  0  0  0
   -5.1989   31.5863    7.4379 N   0  0  0  0  0  0  0  0  0  0  0  0
   -5.1070   31.6142    6.4194 H   0  0  0  0  0  0  0  0  0  0  0  0
   -3.8485   31.3336    7.9893 C   0  0  0  0  0  0  0  0  0  0  0  0
   -2.7271   31.5137    6.9381 C   0  0  0  0  0  0  0  0  0  0  0  0
   -3.2445   31.1273    5.6588 O   0  0  0  0  0  0  0  0  0  0  0  0
   -4.1929   31.3762    5.7032 H   0  0  0  0  0  0  0  0  0  0  0  0
   -1.4800   30.7283    7.2928 C   0  0  0  0  0  0  0  0  0  0  0  0
   -0.6994   30.0912    6.3138 C   0  0  0  0  0  0  0  0  0  0  0  0
    0.4423   29.3672    6.6670 C   0  0  0  0  0  0  0  0  0  0  0  0
    0.8208   29.2690    8.0042 C   0  0  0  0  0  0  0  0  0  0  0  0
    0.0608   29.8995    8.9886 C   0  0  0  0  0  0  0  0  0  0  0  0
   -1.0797   30.6255    8.6361 C   0  0  0  0  0  0  0  0  0  0  0  0
 12 13  1  0  0  0
 13 14  2  0  0  0
 14 15  1  0  0  0
 15 11  1  0  0  0
 11  7  1  0  0  0
  7  8  2  0  0  0
  7  9  1  0  0  0
  9  1  1  0  0  0
  1  2  1  0  0  0
  2  3  2  0  0  0
  3  4  1  0  0  0
  4 20  1  0  0  0
 20 21  1  0  0  0
 21 22  1  0  0  0
 22 24  1  0  0  0
 24 25  1  0  0  0
 25 26  1  0  0  0
 25 28  1  0  0  0
 28 29  2  0  0  0
 29 30  1  0  0  0
 30 31  2  0  0  0
 31 32  1  0  0  0
 32 33  2  0  0  0
  4  5  2  0  0  0
  5  6  1  0  0  0
 15 16  2  0  0  0
 16 17  1  0  0  0
 17 13  1  0  0  0
  6  1  2  0  0  0
 33 28  1  0  0  0
 12 18  1  0  0  0
 12 19  1  0  0  0
  9 10  1  0  0  0
 22 23  1  0  0  0
 26 27  1  0  0  0
M  END
> <minimizedAffinity>
-9.98140

$$$$
OCNT-2328916


 24 26  0  0  0  0  0  0  0  0999 V2000
   -4.8406   30.4708    6.0979 C   0  0  0  0  0  0  0  0  0  0  0  0
   -4.9496   29.1095    6.6144 N   0  0  0  0  0  0  0  0  0  0  0  0
   -6.1837   28.4338    6.1841 C   0  0  0  0  0  0  0  0  0  0  0  0
   -6.0685   27.4642    5.0268 C   0  0  0  0  0  0  0  0  0  0  0  0
   -6.2009   26.0875    5.2279 C   0  0  0  0  0  0  0  0  0  0  0  0
   -6.0908   25.1950    4.1562 C   0  0  0  0  0  0  0  0  0  0  0  0
   -5.8481   25.6434    2.8442 C   0  0  0  0  0  0  0  0  0  0  0  0
   -5.7246   27.0286    2.6547 C   0  0  0  0  0  0  0  0  0  0  0  0
   -5.8345   27.9238    3.7262 C   0  0  0  0  0  0  0  0  0  0  0  0
   -5.7319   24.6318    1.6908 C   0  0  0  0  0  0  0  0  0  0  0  0
   -4.3200   24.0230    1.5336 C   0  0  0  0  0  0  0  0  0  0  0  0
   -6.7097   23.4604    1.9273 C   0  0  0  0  0  0  0  0  0  0  0  0
   -6.0817   25.3239    0.3558 C   0  0  0  0  0  0  0  0  0  0  0  0
   -4.7450   29.0420    8.0680 C   0  0  0  0  0  0  0  0  0  0  0  0
   -3.5539   29.8517    8.5619 C   0  0  0  0  0  0  0  0  0  0  0  0
   -3.8166   31.0146    9.3115 C   0  0  0  0  0  0  0  0  0  0  0  0
   -2.7782   31.7944    9.8078 C   0  0  0  0  0  0  0  0  0  0  0  0
   -1.4588   31.4248    9.5652 C   0  0  0  0  0  0  0  0  0  0  0  0
   -1.1575   30.2749    8.8210 C   0  0  0  0  0  0  0  0  0  0  0  0
    0.1823   29.9210    8.5883 C   0  0  0  0  0  0  0  0  0  0  0  0
    0.5078   28.7852    7.8493 C   0  0  0  0  0  0  0  0  0  0  0  0
   -0.5040   27.9892    7.3310 C   0  0  0  0  0  0  0  0  0  0  0  0
   -1.8408   28.3280    7.5550 C   0  0  0  0  0  0  0  0  0  0  0  0
   -2.2057   29.4709    8.3033 C   0  0  0  0  0  0  0  0  0  0  0  0
  1  2  1  0  0  0
  2  3  1  0  0  0
  3  4  1  0  0  0
  4  5  1  0  0  0
  5  6  2  0  0  0
  6  7  1  0  0  0
  7 10  1  0  0  0
 10 11  1  0  0  0
 10 12  1  0  0  0
 10 13  1  0  0  0
  7  8  2  0  0  0
  8  9  1  0  0  0
  2 14  1  0  0  0
 14 15  1  0  0  0
 15 16  2  0  0  0
 16 17  1  0  0  0
 17 18  2  0  0  0
 18 19  1  0  0  0
 19 20  2  0  0  0
 20 21  1  0  0  0
 21 22  2  0  0  0
 22 23  1  0  0  0
 23 24  2  0  0  0
  9  4  2  0  0  0
 24 15  1  0  0  0
 24 19  1  0  0  0
M  END
> <minimizedAffinity>
-10.25840

$$$$
OCNT-2328919


 52 57  0  0  0  0  0  0  0  0999 V2000
   -5.3907   28.5915    5.9388 C   0  0  0  0  0  0  0  0  0  0  0  0
   -4.1116   27.7499    5.8673 C   0  0  0  0  0  0  0  0  0  0  0  0
   -4.2118   26.6851    4.7762 C   0  0  0  0  0  0  0  0  0  0  0  0
   -4.3379   27.2853    3.4359 N   0  0  0  0  0  0  0  0  0  0  0  0
   -5.1717   28.5011    3.4304 C   0  0  0  0  0  0  0  0  0  0  0  0
   -6.1461   28.5980    4.6025 C   0  0  0  0  0  0  0  0  0  0  0  0
   -5.7599   29.6630    8.5447 O   0  0  0  0  0  0  0  0  0  0  0  0
   -5.3567   30.3895    7.6469 C   0  0  0  0  0  0  0  0  0  0  0  0
   -5.0691   29.9495    6.3702 N   0  0  0  0  0  0  0  0  0  0  0  0
   -4.9266   30.6479    5.6515 H   0  0  0  0  0  0  0  0  0  0  0  0
   -5.1332   31.8452    7.8654 C   0  0  0  0  0  0  0  0  0  0  0  0
   -6.2608   32.6833    7.9341 C   0  0  0  0  0  0  0  0  0  0  0  0
   -6.1083   34.0541    8.1343 C   0  0  0  0  0  0  0  0  0  0  0  0
   -4.8322   34.5941    8.2649 C   0  0  0  0  0  0  0  0  0  0  0  0
   -3.7084   33.7665    8.1915 C   0  0  0  0  0  0  0  0  0  0  0  0
   -3.8346   32.3788    7.9903 C   0  0  0  0  0  0  0  0  0  0  0  0
   -2.6162   31.5601    7.9462 C   0  0  0  0  0  0  0  0  0  0  0  0
   -2.0440   31.0714    9.1306 C   0  0  0  0  0  0  0  0  0  0  0  0
   -0.8869   30.2873    9.0975 C   0  0  0  0  0  0  0  0  0  0  0  0
   -0.2726   29.9770    7.8757 C   0  0  0  0  0  0  0  0  0  0  0  0
   -0.8514   30.4528    6.6891 C   0  0  0  0  0  0  0  0  0  0  0  0
   -2.0091   31.2370    6.7237 C   0  0  0  0  0  0  0  0  0  0  0  0
    0.9724   29.1249    7.8301 C   0  0  0  0  0  0  0  0  0  0  0  0
    1.7446   29.3693    6.7330 F   0  0  0  0  0  0  0  0  0  0  0  0
    0.6857   27.7942    7.7916 F   0  0  0  0  0  0  0  0  0  0  0  0
    1.7912   29.2968    8.9058 F   0  0  0  0  0  0  0  0  0  0  0  0
   -4.7631   26.3049    2.4221 C   0  0  0  0  0  0  0  0  0  0  0  0
   -6.0600   25.5595    2.7782 C   0  0  0  0  0  0  0  0  0  0  0  0
   -5.9536   24.5594    3.9315 C   0  0  0  0  0  0  0  0  0  0  0  0
   -7.2914   24.4478    4.6844 C   0  0  0  0  0  0  0  0  0  0  0  0
   -7.7050   23.0182    5.1210 C   0  0  0  0  0  0  0  0  0  0  0  0
   -6.6623   22.3587    6.0364 C   0  0  0  0  0  0  0  0  0  0  0  0
   -5.3321   22.0704    5.7639 C   0  0  0  0  0  0  0  0  0  0  0  0
   -4.5731   21.4607    6.7643 C   0  0  0  0  0  0  0  0  0  0  0  0
   -5.1446   21.1470    8.0085 C   0  0  0  0  0  0  0  0  0  0  0  0
   -6.4865   21.4356    8.2762 C   0  0  0  0  0  0  0  0  0  0  0  0
   -7.2417   22.0426    7.2867 C   0  0  0  0  0  0  0  0  0  0  0  0
   -8.6324   22.4453    7.2828 C   0  0  0  0  0  0  0  0  0  0  0  0
   -9.6037   22.3282    8.2634 C   0  0  0  0  0  0  0  0  0  0  0  0
  -10.8923   22.7948    7.9832 C   0  0  0  0  0  0  0  0  0  0  0  0
  -11.1984   23.3664    6.7368 C   0  0  0  0  0  0  0  0  0  0  0  0
  -10.2216   23.4848    5.7473 C   0  0  0  0  0  0  0  0  0  0  0  0
   -8.9433   23.0247    6.0318 C   0  0  0  0  0  0  0  0  0  0  0  0
   -7.9748   22.1391    3.8672 C   0  0  0  0  0  0  0  0  0  0  0  0
   -8.5340   21.0441    3.9219 O   0  0  0  0  0  0  0  0  0  0  0  0
   -7.5403   22.6546    2.6590 N   0  0  0  0  0  0  0  0  0  0  0  0
   -6.9308   23.4673    2.6797 H   0  0  0  0  0  0  0  0  0  0  0  0
   -7.5695   21.8409    1.4454 C   0  0  0  0  0  0  0  0  0  0  0  0
   -7.4185   22.6238    0.1381 C   0  0  0  0  0  0  0  0  0  0  0  0
   -8.4447   22.3420   -0.7034 F   0  0  0  0  0  0  0  0  0  0  0  0
   -6.2729   22.2755   -0.4945 F   0  0  0  0  0  0  0  0  0  0  0  0
   -7.3964   23.9613    0.3230 F   0  0  0  0  0  0  0  0  0  0  0  0
  7  8  2  0  0  0
  8  9  1  0  0  0
  9  1  1  0  0  0
  1  2  1  0  0  0
  2  3  1  0  0  0
  3  4  1  0  0  0
  4 27  1  0  0  0
 27 28  1  0  0  0
 28 29  1  0  0  0
 29 30  1  0  0  0
 30 31  1  0  0  0
 31 44  1  0  0  0
 44 45  2  0  0  0
 44 46  1  0  0  0
 46 48  1  0  0  0
 48 49  1  0  0  0
 49 50  1  0  0  0
 49 51  1  0  0  0
 49 52  1  0  0  0
 31 32  1  0  0  0
 32 33  2  0  0  0
 33 34  1  0  0  0
 34 35  2  0  0  0
 35 36  1  0  0  0
 36 37  2  0  0  0
 37 38  1  0  0  0
 38 39  2  0  0  0
 39 40  1  0  0  0
 40 41  2  0  0  0
 41 42  1  0  0  0
 42 43  2  0  0  0
  4  5  1  0  0  0
  5  6  1  0  0  0
  8 11  1  0  0  0
 11 12  2  0  0  0
 12 13  1  0  0  0
 13 14  2  0  0  0
 14 15  1  0  0  0
 15 16  2  0  0  0
 16 17  1  0  0  0
 17 18  1  0  0  0
 18 19  2  0  0  0
 19 20  1  0  0  0
 20 23  1  0  0  0
 23 24  1  0  0  0
 23 25  1  0  0  0
 23 26  1  0  0  0
 20 21  2  0  0  0
 21 22  1  0  0  0
  6  1  1  0  0  0
 16 11  1  0  0  0
 22 17  2  0  0  0
 43 31  1  0  0  0
 37 32  1  0  0  0
 43 38  1  0  0  0
  9 10  1  0  0  0
 46 47  1  0  0  0
M  END
> <minimizedAffinity>
-10.37941

$$$$
OCNT-2328942


 69 77  0  0  0  0  0  0  0  0999 V2000
   -3.5291   24.3386    3.9430 C   0  0  0  0  0  0  0  0  0  0  0  0
   -2.4874   24.4233    4.8665 C   0  0  0  0  0  0  0  0  0  0  0  0
   -2.1901   25.6396    5.4969 C   0  0  0  0  0  0  0  0  0  0  0  0
   -2.9360   26.7967    5.2244 C   0  0  0  0  0  0  0  0  0  0  0  0
   -3.9879   26.6986    4.2986 C   0  0  0  0  0  0  0  0  0  0  0  0
   -4.2656   25.4890    3.6482 C   0  0  0  0  0  0  0  0  0  0  0  0
   -4.7723   27.9478    3.9953 C   0  0  0  0  0  0  0  0  0  0  0  0
   -4.9566   28.7996    5.1377 O   0  0  0  0  0  0  0  0  0  0  0  0
   -3.7976   29.0300    5.8432 C   0  0  0  0  0  0  0  0  0  0  0  0
   -3.7504   30.2260    6.5541 C   0  0  0  0  0  0  0  0  0  0  0  0
   -2.5977   30.5447    7.2857 C   0  0  0  0  0  0  0  0  0  0  0  0
   -2.4941   31.7493    8.0139 C   0  0  0  0  0  0  0  0  0  0  0  0
   -3.3660   32.7731    8.2584 N   0  0  0  0  0  0  0  0  0  0  0  0
   -2.7324   33.7340    9.0059 C   0  0  0  0  0  0  0  0  0  0  0  0
   -1.4971   33.3587    9.2906 N   0  0  0  0  0  0  0  0  0  0  0  0
   -1.3472   32.1175    8.7102 C   0  0  0  0  0  0  0  0  0  0  0  0
   -0.2463   31.2519    8.7207 C   0  0  0  0  0  0  0  0  0  0  0  0
   -0.3322   30.0328    8.0261 C   0  0  0  0  0  0  0  0  0  0  0  0
   -1.4891   29.6709    7.3063 C   0  0  0  0  0  0  0  0  0  0  0  0
   -1.5870   28.4472    6.6118 C   0  0  0  0  0  0  0  0  0  0  0  0
   -2.7466   28.0945    5.8942 C   0  0  0  0  0  0  0  0  0  0  0  0
   -4.3288   32.8164    7.9473 H   0  0  0  0  0  0  0  0  0  0  0  0
   -3.4588   34.9717    9.4150 C   0  0  0  0  0  0  0  0  0  0  0  0
   -3.0001   35.5389   10.7504 C   0  0  0  0  0  0  0  0  0  0  0  0
   -4.1396   36.5048   11.0414 C   0  0  0  0  0  0  0  0  0  0  0  0
   -5.3967   35.7428   10.5582 C   0  0  0  0  0  0  0  0  0  0  0  0
   -6.1815   35.1906   11.7421 C   0  0  0  0  0  0  0  0  0  0  0  0
   -4.8845   34.7259    9.6259 N   0  0  0  0  0  0  0  0  0  0  0  0
   -5.6186   34.3964    8.4901 C   0  0  0  0  0  0  0  0  0  0  0  0
   -5.2739   34.8154    7.3811 O   0  0  0  0  0  0  0  0  0  0  0  0
   -6.8487   33.4610    8.7048 C   0  0  0  0  0  0  0  0  0  0  0  0
   -7.6764   33.5445    7.4982 N   0  0  0  0  0  0  0  0  0  0  0  0
   -8.5469   32.5709    7.1015 C   0  0  0  0  0  0  0  0  0  0  0  0
   -8.9151   31.6079    7.7540 O   0  0  0  0  0  0  0  0  0  0  0  0
   -7.3449   34.1116    6.7335 H   0  0  0  0  0  0  0  0  0  0  0  0
   -8.9496   32.8477    5.8332 O   0  0  0  0  0  0  0  0  0  0  0  0
  -10.3525   33.0889    5.7180 C   0  0  0  0  0  0  0  0  0  0  0  0
   -6.4697   32.0125    9.1415 C   0  0  0  0  0  0  0  0  0  0  0  0
   -7.4383   31.4320   10.1828 C   0  0  0  0  0  0  0  0  0  0  0  0
   -6.4316   31.0214    7.9685 C   0  0  0  0  0  0  0  0  0  0  0  0
   -5.1987   21.4482    2.5413 C   0  0  0  0  0  0  0  0  0  0  0  0
   -4.0049   20.9038    2.6509 N   0  0  0  0  0  0  0  0  0  0  0  0
   -3.1858   21.9048    3.1136 C   0  0  0  0  0  0  0  0  0  0  0  0
   -3.8966   23.0714    3.3327 C   0  0  0  0  0  0  0  0  0  0  0  0
   -5.1462   22.7901    2.8399 N   0  0  0  0  0  0  0  0  0  0  0  0
   -5.9096   23.4444    2.7512 H   0  0  0  0  0  0  0  0  0  0  0  0
   -8.3463   20.8122    0.7304 C   0  0  0  0  0  0  0  0  0  0  0  0
   -6.8307   20.9338    0.7392 C   0  0  0  0  0  0  0  0  0  0  0  0
   -6.5010   20.7807    2.2272 C   0  0  0  0  0  0  0  0  0  0  0  0
   -7.6286   21.4033    2.9133 N   0  0  0  0  0  0  0  0  0  0  0  0
   -7.6992   21.3956    4.2990 C   0  0  0  0  0  0  0  0  0  0  0  0
   -6.8539   20.7597    4.9466 O   0  0  0  0  0  0  0  0  0  0  0  0
   -8.7482   21.5775    1.9907 C   0  0  0  0  0  0  0  0  0  0  0  0
   -8.9975   21.3571   -0.5340 C   0  0  0  0  0  0  0  0  0  0  0  0
   -7.8906   23.4621   -0.6317 C   0  0  0  0  0  0  0  0  0  0  0  0
   -9.1276   22.7770   -0.4939 O   0  0  0  0  0  0  0  0  0  0  0  0
   -8.7006   22.3450    5.0442 C   0  0  0  0  0  0  0  0  0  0  0  0
   -8.8096   22.0245    6.5349 C   0  0  0  0  0  0  0  0  0  0  0  0
   -7.6923   21.7467    7.3385 C   0  0  0  0  0  0  0  0  0  0  0  0
   -7.8390   21.4946    8.7047 C   0  0  0  0  0  0  0  0  0  0  0  0
   -9.1022   21.5330    9.2915 C   0  0  0  0  0  0  0  0  0  0  0  0
  -10.2185   21.8317    8.5191 C   0  0  0  0  0  0  0  0  0  0  0  0
  -10.0748   22.0737    7.1491 C   0  0  0  0  0  0  0  0  0  0  0  0
   -8.5068   23.7740    4.9061 N   0  0  0  0  0  0  0  0  0  0  0  0
   -7.3343   24.3865    5.1989 C   0  0  0  0  0  0  0  0  0  0  0  0
   -6.3379   23.8329    5.6355 O   0  0  0  0  0  0  0  0  0  0  0  0
   -9.2730   24.3560    4.5952 H   0  0  0  0  0  0  0  0  0  0  0  0
   -7.4588   25.7122    4.9613 O   0  0  0  0  0  0  0  0  0  0  0  0
   -7.7604   26.4866    6.1219 C   0  0  0  0  0  0  0  0  0  0  0  0
 55 56  1  0  0  0
 56 54  1  0  0  0
 54 47  1  0  0  0
 47 48  1  0  0  0
 48 49  1  0  0  0
 49 41  1  0  0  0
 41 42  2  0  0  0
 42 43  1  0  0  0
 43 44  2  0  0  0
 44  1  1  0  0  0
  1  2  2  0  0  0
  2  3  1  0  0  0
  3  4  2  0  0  0
  4  5  1  0  0  0
  5  6  2  0  0  0
  5  7  1  0  0  0
  7  8  1  0  0  0
  8  9  1  0  0  0
  9 10  2  0  0  0
 10 11  1  0  0  0
 11 12  2  0  0  0
 12 13  1  0  0  0
 13 14  1  0  0  0
 14 23  1  0  0  0
 23 24  1  0  0  0
 24 25  1  0  0  0
 25 26  1  0  0  0
 26 27  1  0  0  0
 26 28  1  0  0  0
 28 29  1  0  0  0
 29 30  2  0  0  0
 29 31  1  0  0  0
 31 32  1  0  0  0
 32 33  1  0  0  0
 33 34  2  0  0  0
 33 36  1  0  0  0
 36 37  1  0  0  0
 31 38  1  0  0  0
 38 39  1  0  0  0
 38 40  1  0  0  0
 14 15  2  0  0  0
 15 16  1  0  0  0
 16 17  2  0  0  0
 17 18  1  0  0  0
 18 19  2  0  0  0
 19 20  1  0  0  0
 20 21  2  0  0  0
 44 45  1  0  0  0
 49 50  1  0  0  0
 50 51  1  0  0  0
 51 52  2  0  0  0
 51 57  1  0  0  0
 57 64  1  0  0  0
 64 65  1  0  0  0
 65 66  2  0  0  0
 65 68  1  0  0  0
 68 69  1  0  0  0
 57 58  1  0  0  0
 58 59  2  0  0  0
 59 60  1  0  0  0
 60 61  2  0  0  0
 61 62  1  0  0  0
 62 63  2  0  0  0
 50 53  1  0  0  0
 53 47  1  0  0  0
 45 41  1  0  0  0
 63 58  1  0  0  0
  6  1  1  0  0  0
 21  9  1  0  0  0
 21  4  1  0  0  0
 19 11  1  0  0  0
 16 12  1  0  0  0
 28 23  1  0  0  0
 13 22  1  0  0  0
 32 35  1  0  0  0
 45 46  1  0  0  0
 64 67  1  0  0  0
M  END
> <minimizedAffinity>
28.69840

$$$$
OCNT-2328943


 37 41  0  0  0  0  0  0  0  0999 V2000
   -3.7579   22.4739    3.0640 C   0  0  0  0  0  0  0  0  0  0  0  0
   -4.3942   23.7145    2.5388 C   0  0  0  0  0  0  0  0  0  0  0  0
   -4.0889   25.0177    2.9086 C   0  0  0  0  0  0  0  0  0  0  0  0
   -4.9051   25.8622    2.1757 N   0  0  0  0  0  0  0  0  0  0  0  0
   -5.7520   25.1245    1.3643 C   0  0  0  0  0  0  0  0  0  0  0  0
   -6.7566   25.5235    0.4625 C   0  0  0  0  0  0  0  0  0  0  0  0
   -7.4580   24.5349   -0.2349 C   0  0  0  0  0  0  0  0  0  0  0  0
   -7.1626   23.1945   -0.0334 C   0  0  0  0  0  0  0  0  0  0  0  0
   -7.8355   22.2132   -0.7034 O   0  0  0  0  0  0  0  0  0  0  0  0
   -6.1690   22.7978    0.8591 C   0  0  0  0  0  0  0  0  0  0  0  0
   -5.4461   23.7775    1.5730 C   0  0  0  0  0  0  0  0  0  0  0  0
   -8.4803   22.6314   -1.2965 H   0  0  0  0  0  0  0  0  0  0  0  0
   -3.1017   25.4798    3.8817 C   0  0  0  0  0  0  0  0  0  0  0  0
   -1.8231   25.8634    3.4631 C   0  0  0  0  0  0  0  0  0  0  0  0
   -0.8857   26.3133    4.3941 C   0  0  0  0  0  0  0  0  0  0  0  0
   -1.2252   26.3664    5.7411 C   0  0  0  0  0  0  0  0  0  0  0  0
   -0.2803   26.8126    6.6169 O   0  0  0  0  0  0  0  0  0  0  0  0
   -2.4882   25.9755    6.1760 C   0  0  0  0  0  0  0  0  0  0  0  0
   -3.4270   25.5295    5.2427 C   0  0  0  0  0  0  0  0  0  0  0  0
   -0.6356   26.7412    7.5180 H   0  0  0  0  0  0  0  0  0  0  0  0
   -4.9322   27.3209    2.2964 C   0  0  0  0  0  0  0  0  0  0  0  0
   -5.5660   27.7980    3.5813 C   0  0  0  0  0  0  0  0  0  0  0  0
   -5.7304   29.1711    3.8148 C   0  0  0  0  0  0  0  0  0  0  0  0
   -6.3028   29.6379    5.0045 C   0  0  0  0  0  0  0  0  0  0  0  0
   -6.7099   28.7394    5.9876 C   0  0  0  0  0  0  0  0  0  0  0  0
   -6.5379   27.3717    5.7653 C   0  0  0  0  0  0  0  0  0  0  0  0
   -5.9700   26.9017    4.5780 C   0  0  0  0  0  0  0  0  0  0  0  0
   -7.2806   29.0470    7.1890 O   0  0  0  0  0  0  0  0  0  0  0  0
   -6.4831   29.0022    8.3729 C   0  0  0  0  0  0  0  0  0  0  0  0
   -5.5319   30.2113    8.4979 C   0  0  0  0  0  0  0  0  0  0  0  0
   -4.2157   29.9294    9.0882 N   0  0  0  0  0  0  0  0  0  0  0  0
   -3.3533   29.0958    8.2540 C   0  0  0  0  0  0  0  0  0  0  0  0
   -3.1439   29.5121    6.7961 C   0  0  0  0  0  0  0  0  0  0  0  0
   -2.7776   30.9688    6.5123 C   0  0  0  0  0  0  0  0  0  0  0  0
   -2.0922   31.7262    7.6433 C   0  0  0  0  0  0  0  0  0  0  0  0
   -3.0622   32.1753    8.7361 C   0  0  0  0  0  0  0  0  0  0  0  0
   -3.5141   31.0633    9.6824 C   0  0  0  0  0  0  0  0  0  0  0  0
  1  2  1  0  0  0
  2  3  2  0  0  0
  3 13  1  0  0  0
 13 14  1  0  0  0
 14 15  2  0  0  0
 15 16  1  0  0  0
 16 17  1  0  0  0
 16 18  2  0  0  0
 18 19  1  0  0  0
  3  4  1  0  0  0
  4 21  1  0  0  0
 21 22  1  0  0  0
 22 23  1  0  0  0
 23 24  2  0  0  0
 24 25  1  0  0  0
 25 28  1  0  0  0
 28 29  1  0  0  0
 29 30  1  0  0  0
 30 31  1  0  0  0
 31 32  1  0  0  0
 32 33  1  0  0  0
 33 34  1  0  0  0
 34 35  1  0  0  0
 35 36  1  0  0  0
 36 37  1  0  0  0
 25 26  2  0  0  0
 26 27  1  0  0  0
  4  5  1  0  0  0
  5  6  2  0  0  0
  6  7  1  0  0  0
  7  8  2  0  0  0
  8  9  1  0  0  0
  8 10  1  0  0  0
 10 11  2  0  0  0
 11  2  1  0  0  0
 19 13  2  0  0  0
 27 22  2  0  0  0
 11  5  1  0  0  0
 37 31  1  0  0  0
 17 20  1  0  0  0
  9 12  1  0  0  0
M  END
> <minimizedAffinity>
-10.01710

$$$$
OCNT-2328949


 28 30  0  0  0  0  0  0  0  0999 V2000
   -4.7925   27.6655    5.8166 N   0  0  0  0  0  0  0  0  0  0  0  0
   -4.8783   29.0003    6.1441 C   0  0  0  0  0  0  0  0  0  0  0  0
   -5.8073   29.7180    5.7875 O   0  0  0  0  0  0  0  0  0  0  0  0
   -3.9267   27.1819    6.0397 H   0  0  0  0  0  0  0  0  0  0  0  0
   -3.7715   29.5702    6.9645 C   0  0  0  0  0  0  0  0  0  0  0  0
   -4.0396   30.6992    7.7514 C   0  0  0  0  0  0  0  0  0  0  0  0
   -3.0310   31.2794    8.5382 C   0  0  0  0  0  0  0  0  0  0  0  0
   -3.4380   32.6643    9.4946 Cl  0  0  0  0  0  0  0  0  0  0  0  0
   -1.7116   30.7841    8.5318 C   0  0  0  0  0  0  0  0  0  0  0  0
   -0.7222   31.2876    9.3892 N   0  0  0  0  0  0  0  0  0  0  0  0
   -1.4818   29.6326    7.7906 C   0  0  0  0  0  0  0  0  0  0  0  0
   -2.4848   29.0491    7.0160 C   0  0  0  0  0  0  0  0  0  0  0  0
   -2.0423   27.9410    6.3271 O   0  0  0  0  0  0  0  0  0  0  0  0
   -0.7858   27.6127    6.9620 C   0  0  0  0  0  0  0  0  0  0  0  0
   -0.2208   28.8724    7.6071 C   0  0  0  0  0  0  0  0  0  0  0  0
   -0.9163   32.2395    9.6972 H   0  0  0  0  0  0  0  0  0  0  0  0
    0.2291   31.1711    9.0577 H   0  0  0  0  0  0  0  0  0  0  0  0
   -5.2394   24.9863    2.7413 N   0  0  0  0  0  0  0  0  0  0  0  0
   -4.5893   26.3083    2.7632 C   0  0  0  0  0  0  0  0  0  0  0  0
   -5.4255   27.3905    3.4404 C   0  0  0  0  0  0  0  0  0  0  0  0
   -5.7277   27.0238    4.9007 C   0  0  0  0  0  0  0  0  0  0  0  0
   -5.7267   25.5077    5.1248 C   0  0  0  0  0  0  0  0  0  0  0  0
   -6.1691   24.7746    3.8618 C   0  0  0  0  0  0  0  0  0  0  0  0
   -5.8626   24.7131    1.4319 C   0  0  0  0  0  0  0  0  0  0  0  0
   -6.7007   23.4265    1.4147 C   0  0  0  0  0  0  0  0  0  0  0  0
   -6.0058   22.3069    0.6432 C   0  0  0  0  0  0  0  0  0  0  0  0
   -5.3782   21.2732    2.6655 C   0  0  0  0  0  0  0  0  0  0  0  0
   -6.0250   21.1061    1.4110 O   0  0  0  0  0  0  0  0  0  0  0  0
 27 28  1  0  0  0
 28 26  1  0  0  0
 26 25  1  0  0  0
 25 24  1  0  0  0
 24 18  1  0  0  0
 18 19  1  0  0  0
 19 20  1  0  0  0
 20 21  1  0  0  0
 21  1  1  0  0  0
  1  2  1  0  0  0
  2  3  2  0  0  0
  2  5  1  0  0  0
  5  6  1  0  0  0
  6  7  2  0  0  0
  7  8  1  0  0  0
  7  9  1  0  0  0
  9 10  1  0  0  0
  9 11  2  0  0  0
 11 12  1  0  0  0
 12 13  1  0  0  0
 13 14  1  0  0  0
 14 15  1  0  0  0
 21 22  1  0  0  0
 22 23  1  0  0  0
 23 18  1  0  0  0
 12  5  2  0  0  0
 15 11  1  0  0  0
  1  4  1  0  0  0
 10 16  1  0  0  0
 10 17  1  0  0  0
M  END
> <minimizedAffinity>
-8.40824

$$$$
OCNT-2328950


 19 20  0  0  0  0  0  0  0  0999 V2000
   -6.3774   28.7555    5.0488 C   0  0  0  0  0  0  0  0  0  0  0  0
   -6.1610   27.4098    5.3794 C   0  0  0  0  0  0  0  0  0  0  0  0
   -5.7898   26.4597    4.4179 C   0  0  0  0  0  0  0  0  0  0  0  0
   -5.5928   26.8257    3.0852 C   0  0  0  0  0  0  0  0  0  0  0  0
   -5.7809   28.1668    2.7533 C   0  0  0  0  0  0  0  0  0  0  0  0
   -6.1486   29.1154    3.7224 C   0  0  0  0  0  0  0  0  0  0  0  0
   -6.6843   29.6347    6.0753 N   0  0  0  0  0  0  0  0  0  0  0  0
   -7.2776   30.3971    5.7563 H   0  0  0  0  0  0  0  0  0  0  0  0
   -4.4748   30.5427    6.7622 C   0  0  0  0  0  0  0  0  0  0  0  0
   -5.8417   30.0323    7.2044 C   0  0  0  0  0  0  0  0  0  0  0  0
   -6.5547   30.9603    8.1810 C   0  0  0  0  0  0  0  0  0  0  0  0
   -5.2626   25.8374    2.1444 N   0  0  0  0  0  0  0  0  0  0  0  0
   -4.2665   25.7308    1.9922 H   0  0  0  0  0  0  0  0  0  0  0  0
   -6.0544   24.9764    1.3650 C   0  0  0  0  0  0  0  0  0  0  0  0
   -6.4272   25.2667    0.0478 C   0  0  0  0  0  0  0  0  0  0  0  0
   -7.1856   24.3633   -0.7035 C   0  0  0  0  0  0  0  0  0  0  0  0
   -7.5754   23.1479   -0.1479 C   0  0  0  0  0  0  0  0  0  0  0  0
   -7.2083   22.8374    1.1582 C   0  0  0  0  0  0  0  0  0  0  0  0
   -6.4520   23.7447    1.9059 C   0  0  0  0  0  0  0  0  0  0  0  0
  9 10  1  0  0  0
 10 11  1  0  0  0
 10  7  1  0  0  0
  7  1  1  0  0  0
  1  2  1  0  0  0
  2  3  2  0  0  0
  3  4  1  0  0  0
  4 12  1  0  0  0
 12 14  1  0  0  0
 14 15  2  0  0  0
 15 16  1  0  0  0
 16 17  2  0  0  0
 17 18  1  0  0  0
 18 19  2  0  0  0
  4  5  2  0  0  0
  5  6  1  0  0  0
  6  1  2  0  0  0
 19 14  1  0  0  0
  7  8  1  0  0  0
 12 13  1  0  0  0
M  END
> <minimizedAffinity>
-7.61413

$$$$
OCNT-2328958


 22 24  0  0  0  0  0  0  0  0999 V2000
   -5.9645   28.8563    5.9555 C   0  0  0  0  0  0  0  0  0  0  0  0
   -4.7663   28.4608    6.3081 N   0  0  0  0  0  0  0  0  0  0  0  0
   -4.3505   27.6468    5.2825 C   0  0  0  0  0  0  0  0  0  0  0  0
   -3.1485   26.9435    5.1302 C   0  0  0  0  0  0  0  0  0  0  0  0
   -2.9580   26.1672    3.9762 C   0  0  0  0  0  0  0  0  0  0  0  0
   -1.4906   25.2560    3.8991 Cl  0  0  0  0  0  0  0  0  0  0  0  0
   -3.9447   26.1128    2.9772 C   0  0  0  0  0  0  0  0  0  0  0  0
   -5.1713   26.7813    3.1412 C   0  0  0  0  0  0  0  0  0  0  0  0
   -5.3269   27.5475    4.2963 C   0  0  0  0  0  0  0  0  0  0  0  0
   -6.3506   28.3361    4.7560 N   0  0  0  0  0  0  0  0  0  0  0  0
   -7.2332   28.5152    4.3015 H   0  0  0  0  0  0  0  0  0  0  0  0
   -5.8453   30.7762    7.8685 C   0  0  0  0  0  0  0  0  0  0  0  0
   -7.0276   29.9036    6.8159 S   0  0  0  0  0  0  0  0  0  0  0  0
   -3.8637   25.3646    1.8183 O   0  0  0  0  0  0  0  0  0  0  0  0
   -4.6918   24.2694    1.6815 C   0  0  0  0  0  0  0  0  0  0  0  0
   -4.4502   23.2402    2.6037 C   0  0  0  0  0  0  0  0  0  0  0  0
   -5.2210   22.0808    2.5900 C   0  0  0  0  0  0  0  0  0  0  0  0
   -6.2555   21.9528    1.6672 C   0  0  0  0  0  0  0  0  0  0  0  0
   -6.5326   22.9918    0.7706 C   0  0  0  0  0  0  0  0  0  0  0  0
   -7.8614   22.7550   -0.3148 Cl  0  0  0  0  0  0  0  0  0  0  0  0
   -5.7632   24.1678    0.7785 C   0  0  0  0  0  0  0  0  0  0  0  0
   -6.1865   25.4869   -0.2645 Cl  0  0  0  0  0  0  0  0  0  0  0  0
 12 13  1  0  0  0
 13  1  1  0  0  0
  1  2  2  0  0  0
  2  3  1  0  0  0
  3  4  2  0  0  0
  4  5  1  0  0  0
  5  6  1  0  0  0
  5  7  2  0  0  0
  7 14  1  0  0  0
 14 15  1  0  0  0
 15 16  2  0  0  0
 16 17  1  0  0  0
 17 18  2  0  0  0
 18 19  1  0  0  0
 19 20  1  0  0  0
 19 21  2  0  0  0
 21 22  1  0  0  0
  7  8  1  0  0  0
  8  9  2  0  0  0
  9 10  1  0  0  0
 10  1  1  0  0  0
  9  3  1  0  0  0
 21 15  1  0  0  0
 10 11  1  0  0  0
M  END
> <minimizedAffinity>
-8.09289

$$$$
OCNT-2328975


 21 24  0  0  0  0  0  0  0  0999 V2000
   -5.8920   27.0254    2.2465 C   0  0  0  0  0  0  0  0  0  0  0  0
   -5.2387   27.4391    3.4826 N   0  0  0  0  0  0  0  0  0  0  0  0
   -6.2110   27.9529    4.4628 C   0  0  0  0  0  0  0  0  0  0  0  0
   -5.8300   27.7380    5.9434 C   0  0  0  0  0  0  0  0  0  0  0  0
   -4.3316   27.8268    6.1747 C   0  0  0  0  0  0  0  0  0  0  0  0
   -3.7169   28.6814    7.0389 C   0  0  0  0  0  0  0  0  0  0  0  0
   -4.5502   29.6316    7.8284 C   0  0  0  0  0  0  0  0  0  0  0  0
   -5.3289   29.1804    8.9038 C   0  0  0  0  0  0  0  0  0  0  0  0
   -6.0953   30.0810    9.6434 C   0  0  0  0  0  0  0  0  0  0  0  0
   -6.0787   31.4372    9.3229 C   0  0  0  0  0  0  0  0  0  0  0  0
   -5.2881   31.9004    8.2699 C   0  0  0  0  0  0  0  0  0  0  0  0
   -4.5122   31.0062    7.5194 C   0  0  0  0  0  0  0  0  0  0  0  0
   -3.6113   31.5094    6.4124 C   0  0  0  0  0  0  0  0  0  0  0  0
   -2.1238   31.4022    6.7686 C   0  0  0  0  0  0  0  0  0  0  0  0
   -1.6046   30.0027    7.0059 C   0  0  0  0  0  0  0  0  0  0  0  0
   -2.2751   28.7953    7.1393 C   0  0  0  0  0  0  0  0  0  0  0  0
   -1.3843   27.7182    7.4414 C   0  0  0  0  0  0  0  0  0  0  0  0
   -0.0698   28.1217    7.4792 C   0  0  0  0  0  0  0  0  0  0  0  0
    0.0947   29.7934    7.1825 S   0  0  0  0  0  0  0  0  0  0  0  0
   -3.5665   26.9031    5.2305 C   0  0  0  0  0  0  0  0  0  0  0  0
   -4.4073   26.3760    4.0488 C   0  0  0  0  0  0  0  0  0  0  0  0
  1  2  1  0  0  0
  2  3  1  0  0  0
  3  4  1  0  0  0
  4  5  1  0  0  0
  5  6  2  0  0  0
  6  7  1  0  0  0
  7  8  2  0  0  0
  8  9  1  0  0  0
  9 10  2  0  0  0
 10 11  1  0  0  0
 11 12  2  0  0  0
 12 13  1  0  0  0
 13 14  1  0  0  0
 14 15  1  0  0  0
 15 16  2  0  0  0
 16 17  1  0  0  0
 17 18  2  0  0  0
 18 19  1  0  0  0
  5 20  1  0  0  0
 20 21  1  0  0  0
 21  2  1  0  0  0
 16  6  1  0  0  0
 12  7  1  0  0  0
 19 15  1  0  0  0
M  END
> <minimizedAffinity>
-8.13129

$$$$
OCNT-2328989


 32 35  0  0  0  0  0  0  0  0999 V2000
   -4.5134   28.8405    6.1151 C   0  0  0  0  0  0  0  0  0  0  0  0
   -4.0951   29.7557    5.4114 O   0  0  0  0  0  0  0  0  0  0  0  0
   -4.5849   27.5499    5.6425 N   0  0  0  0  0  0  0  0  0  0  0  0
   -5.0761   26.8476    6.1807 H   0  0  0  0  0  0  0  0  0  0  0  0
   -4.1034   27.2153    4.2769 C   0  0  0  0  0  0  0  0  0  0  0  0
   -5.1627   27.2848    3.1570 C   0  0  0  0  0  0  0  0  0  0  0  0
   -6.0390   28.0548    2.8370 O   0  0  0  0  0  0  0  0  0  0  0  0
   -4.8759   26.0162    2.7321 N   0  0  0  0  0  0  0  0  0  0  0  0
   -4.0161   25.7180    3.8939 C   0  0  0  0  0  0  0  0  0  0  0  0
   -5.0068   24.5088    4.8593 S   0  0  0  0  0  0  0  0  0  0  0  0
   -5.7781   23.8376    3.3077 C   0  0  0  0  0  0  0  0  0  0  0  0
   -4.8142   22.8056    2.7060 C   0  0  0  0  0  0  0  0  0  0  0  0
   -7.1056   23.1718    3.6776 C   0  0  0  0  0  0  0  0  0  0  0  0
   -5.9806   25.0987    2.4416 C   0  0  0  0  0  0  0  0  0  0  0  0
   -6.1287   24.7869    0.9551 C   0  0  0  0  0  0  0  0  0  0  0  0
   -7.0756   24.2044    0.4469 O   0  0  0  0  0  0  0  0  0  0  0  0
   -5.0979   25.1876    0.1850 O   0  0  0  0  0  0  0  0  0  0  0  0
   -5.3590   24.9469   -0.7284 H   0  0  0  0  0  0  0  0  0  0  0  0
   -7.5719   28.4446    7.4283 C   0  0  0  0  0  0  0  0  0  0  0  0
   -6.2727   28.8922    7.9682 C   0  0  0  0  0  0  0  0  0  0  0  0
   -4.9977   29.0534    7.4614 C   0  0  0  0  0  0  0  0  0  0  0  0
   -4.2298   29.4414    8.6011 C   0  0  0  0  0  0  0  0  0  0  0  0
   -5.0040   29.5559    9.6894 N   0  0  0  0  0  0  0  0  0  0  0  0
   -6.2746   29.2073    9.2903 O   0  0  0  0  0  0  0  0  0  0  0  0
   -2.8043   29.7306    8.6717 C   0  0  0  0  0  0  0  0  0  0  0  0
   -2.3478   31.0034    9.0537 C   0  0  0  0  0  0  0  0  0  0  0  0
   -3.4300   32.2858    9.4838 Cl  0  0  0  0  0  0  0  0  0  0  0  0
   -0.9764   31.2783    9.1182 C   0  0  0  0  0  0  0  0  0  0  0  0
   -0.0460   30.2889    8.8072 C   0  0  0  0  0  0  0  0  0  0  0  0
   -0.4849   29.0203    8.4348 C   0  0  0  0  0  0  0  0  0  0  0  0
   -1.8548   28.7396    8.3687 C   0  0  0  0  0  0  0  0  0  0  0  0
   -2.3103   27.1326    7.9063 Cl  0  0  0  0  0  0  0  0  0  0  0  0
 19 20  1  0  0  0
 20 21  2  0  0  0
 21  1  1  0  0  0
  1  2  2  0  0  0
  1  3  1  0  0  0
  3  5  1  0  0  0
  5  6  1  0  0  0
  6  7  2  0  0  0
  6  8  1  0  0  0
  8  9  1  0  0  0
  9 10  1  0  0  0
 10 11  1  0  0  0
 11 12  1  0  0  0
 11 13  1  0  0  0
 11 14  1  0  0  0
 14 15  1  0  0  0
 15 16  2  0  0  0
 15 17  1  0  0  0
 21 22  1  0  0  0
 22 25  1  0  0  0
 25 26  2  0  0  0
 26 27  1  0  0  0
 26 28  1  0  0  0
 28 29  2  0  0  0
 29 30  1  0  0  0
 30 31  2  0  0  0
 31 32  1  0  0  0
 22 23  2  0  0  0
 23 24  1  0  0  0
 24 20  1  0  0  0
  9  5  1  0  0  0
 31 25  1  0  0  0
 14  8  1  0  0  0
  3  4  1  0  0  0
 17 18  1  0  0  0
M  END
> <minimizedAffinity>
-9.26075

$$$$
OCNT-2328990


 28 31  0  0  0  0  0  0  0  0999 V2000
   -5.1584   23.1167    1.9266 N   0  0  0  0  0  0  0  0  0  0  0  0
   -4.1965   22.8543    2.9618 C   0  0  0  0  0  0  0  0  0  0  0  0
   -4.2087   24.1473    3.7823 C   0  0  0  0  0  0  0  0  0  0  0  0
   -5.7491   24.5286    3.7781 C   0  0  0  0  0  0  0  0  0  0  0  0
   -6.1301   24.0270    2.3474 C   0  0  0  0  0  0  0  0  0  0  0  0
   -7.1345   24.3064    1.7054 O   0  0  0  0  0  0  0  0  0  0  0  0
   -5.9438   26.0386    4.0331 C   0  0  0  0  0  0  0  0  0  0  0  0
   -5.8000   27.0088    3.0273 C   0  0  0  0  0  0  0  0  0  0  0  0
   -5.9602   28.3688    3.3100 C   0  0  0  0  0  0  0  0  0  0  0  0
   -6.2631   28.7875    4.6021 C   0  0  0  0  0  0  0  0  0  0  0  0
   -6.4056   27.8471    5.6165 C   0  0  0  0  0  0  0  0  0  0  0  0
   -6.2450   26.4883    5.3366 C   0  0  0  0  0  0  0  0  0  0  0  0
   -6.6287   23.7195    4.7837 C   0  0  0  0  0  0  0  0  0  0  0  0
   -8.0267   23.6061    4.6892 C   0  0  0  0  0  0  0  0  0  0  0  0
   -8.7553   22.8554    5.6189 C   0  0  0  0  0  0  0  0  0  0  0  0
   -8.1043   22.1960    6.6567 C   0  0  0  0  0  0  0  0  0  0  0  0
   -6.7215   22.2810    6.7653 C   0  0  0  0  0  0  0  0  0  0  0  0
   -5.9932   23.0295    5.8384 C   0  0  0  0  0  0  0  0  0  0  0  0
   -6.0400   20.9257    1.2098 C   0  0  0  0  0  0  0  0  0  0  0  0
   -5.3559   22.2202    0.8029 C   0  0  0  0  0  0  0  0  0  0  0  0
   -3.2688   25.2112    3.1373 C   0  0  0  0  0  0  0  0  0  0  0  0
   -1.8946   25.2921    3.8297 C   0  0  0  0  0  0  0  0  0  0  0  0
   -1.6937   26.5840    4.4974 N   0  0  0  0  0  0  0  0  0  0  0  0
   -0.3096   26.7071    5.0040 C   0  0  0  0  0  0  0  0  0  0  0  0
   -0.1942   27.7946    6.0812 C   0  0  0  0  0  0  0  0  0  0  0  0
   -0.9487   27.4834    7.2603 O   0  0  0  0  0  0  0  0  0  0  0  0
   -2.0932   26.6634    6.9933 C   0  0  0  0  0  0  0  0  0  0  0  0
   -2.6679   26.8542    5.5791 C   0  0  0  0  0  0  0  0  0  0  0  0
 19 20  1  0  0  0
 20  1  1  0  0  0
  1  2  1  0  0  0
  2  3  1  0  0  0
  3 21  1  0  0  0
 21 22  1  0  0  0
 22 23  1  0  0  0
 23 24  1  0  0  0
 24 25  1  0  0  0
 25 26  1  0  0  0
 26 27  1  0  0  0
 27 28  1  0  0  0
  3  4  1  0  0  0
  4  7  1  0  0  0
  7  8  2  0  0  0
  8  9  1  0  0  0
  9 10  2  0  0  0
 10 11  1  0  0  0
 11 12  2  0  0  0
  4 13  1  0  0  0
 13 14  2  0  0  0
 14 15  1  0  0  0
 15 16  2  0  0  0
 16 17  1  0  0  0
 17 18  2  0  0  0
  4  5  1  0  0  0
  5  6  2  0  0  0
  5  1  1  0  0  0
 28 23  1  0  0  0
 12  7  1  0  0  0
 18 13  1  0  0  0
M  END
> <minimizedAffinity>
-8.58080

$$$$
OCNT-2328994


 27 29  0  0  0  0  0  0  0  0999 V2000
   -2.7902   30.5666    8.9619 C   0  0  0  0  0  0  0  0  0  0  0  0
   -3.0442   29.3267    8.3450 C   0  0  0  0  0  0  0  0  0  0  0  0
   -2.0071   28.4375    8.0262 C   0  0  0  0  0  0  0  0  0  0  0  0
   -0.6900   28.8308    8.2887 C   0  0  0  0  0  0  0  0  0  0  0  0
   -0.4164   30.0525    8.9075 C   0  0  0  0  0  0  0  0  0  0  0  0
   -1.4638   30.9057    9.2474 C   0  0  0  0  0  0  0  0  0  0  0  0
   -1.1967   32.0863    9.8805 O   0  0  0  0  0  0  0  0  0  0  0  0
   -0.2464   32.2697    9.8097 H   0  0  0  0  0  0  0  0  0  0  0  0
   -2.3038   27.2252    7.3621 N   0  0  0  0  0  0  0  0  0  0  0  0
   -2.2145   26.4251    7.9854 H   0  0  0  0  0  0  0  0  0  0  0  0
   -1.9105   26.8340    6.0508 C   0  0  0  0  0  0  0  0  0  0  0  0
   -0.5765   26.5459    5.7595 C   0  0  0  0  0  0  0  0  0  0  0  0
   -0.2597   26.0937    4.4950 C   0  0  0  0  0  0  0  0  0  0  0  0
   -1.1679   25.8936    3.5191 N   0  0  0  0  0  0  0  0  0  0  0  0
   -2.4569   26.1470    3.7922 C   0  0  0  0  0  0  0  0  0  0  0  0
   -3.3931   25.9312    2.7921 C   0  0  0  0  0  0  0  0  0  0  0  0
   -4.7484   26.1727    3.0054 C   0  0  0  0  0  0  0  0  0  0  0  0
   -5.8780   25.8919    1.7381 Cl  0  0  0  0  0  0  0  0  0  0  0  0
   -5.1946   26.6416    4.2331 C   0  0  0  0  0  0  0  0  0  0  0  0
   -4.2708   26.8653    5.2523 C   0  0  0  0  0  0  0  0  0  0  0  0
   -2.8929   26.6179    5.0520 C   0  0  0  0  0  0  0  0  0  0  0  0
   -3.9379   31.5005    9.2922 C   0  0  0  0  0  0  0  0  0  0  0  0
   -4.7394   31.8936    8.1107 N   0  0  0  0  0  0  0  0  0  0  0  0
   -6.4174   30.8011    9.5974 C   0  0  0  0  0  0  0  0  0  0  0  0
   -6.1309   31.4282    8.2352 C   0  0  0  0  0  0  0  0  0  0  0  0
   -4.6746   33.3512    7.9061 C   0  0  0  0  0  0  0  0  0  0  0  0
   -4.6651   34.1170    9.2267 C   0  0  0  0  0  0  0  0  0  0  0  0
 24 25  1  0  0  0
 25 23  1  0  0  0
 23 26  1  0  0  0
 26 27  1  0  0  0
 23 22  1  0  0  0
 22  1  1  0  0  0
  1  2  1  0  0  0
  2  3  2  0  0  0
  3  9  1  0  0  0
  9 11  1  0  0  0
 11 12  2  0  0  0
 12 13  1  0  0  0
 13 14  2  0  0  0
 14 15  1  0  0  0
 15 16  2  0  0  0
 16 17  1  0  0  0
 17 18  1  0  0  0
 17 19  2  0  0  0
 19 20  1  0  0  0
 20 21  2  0  0  0
  3  4  1  0  0  0
  4  5  2  0  0  0
  5  6  1  0  0  0
  6  7  1  0  0  0
  6  1  2  0  0  0
 21 11  1  0  0  0
 21 15  1  0  0  0
  9 10  1  0  0  0
  7  8  1  0  0  0
M  END
> <minimizedAffinity>
-9.34123

$$$$
