OCNT-2315630


 23 26  0  0  0  0  0  0  0  0999 V2000
   -4.2761   30.3794    7.4813 C   0  0  0  0  0  0  0  0  0  0  0  0
   -5.1963   31.5252    7.9275 C   0  0  0  0  0  0  0  0  0  0  0  0
   -6.5739   30.8754    7.9858 C   0  0  0  0  0  0  0  0  0  0  0  0
   -6.5547   29.9431    6.7852 C   0  0  0  0  0  0  0  0  0  0  0  0
   -5.1623   29.5414    6.6650 N   0  0  0  0  0  0  0  0  0  0  0  0
   -4.6615   28.5854    5.8082 C   0  0  0  0  0  0  0  0  0  0  0  0
   -3.4693   28.3135    5.7297 O   0  0  0  0  0  0  0  0  0  0  0  0
   -5.6496   27.8555    4.9738 C   0  0  0  0  0  0  0  0  0  0  0  0
   -6.1382   28.4382    3.6730 C   0  0  0  0  0  0  0  0  0  0  0  0
   -5.2057   27.2544    3.6470 C   0  0  0  0  0  0  0  0  0  0  0  0
   -5.7081   25.8860    3.2526 C   0  0  0  0  0  0  0  0  0  0  0  0
   -5.7533   25.4954    1.9037 C   0  0  0  0  0  0  0  0  0  0  0  0
   -6.2263   24.2366    1.5244 C   0  0  0  0  0  0  0  0  0  0  0  0
   -6.6732   23.3414    2.4916 C   0  0  0  0  0  0  0  0  0  0  0  0
   -6.6514   23.7078    3.8341 C   0  0  0  0  0  0  0  0  0  0  0  0
   -6.1774   24.9686    4.2069 C   0  0  0  0  0  0  0  0  0  0  0  0
   -3.6622   29.5820    8.6474 C   0  0  0  0  0  0  0  0  0  0  0  0
   -2.0538   31.9257    9.8839 C   0  0  0  0  0  0  0  0  0  0  0  0
   -1.4745   30.7137    9.2520 C   0  0  0  0  0  0  0  0  0  0  0  0
   -0.1858   30.4653    9.1239 N   0  0  0  0  0  0  0  0  0  0  0  0
   -0.0943   29.2364    8.5283 C   0  0  0  0  0  0  0  0  0  0  0  0
   -1.3436   28.7272    8.2762 C   0  0  0  0  0  0  0  0  0  0  0  0
   -2.2170   29.6853    8.7176 N   0  0  0  0  0  0  0  0  0  0  0  0
 18 19  1  0  0  0
 19 20  2  0  0  0
 20 21  1  0  0  0
 21 22  2  0  0  0
 22 23  1  0  0  0
 23 17  1  0  0  0
 17  1  1  0  0  0
  1  2  1  0  0  0
  2  3  1  0  0  0
  3  4  1  0  0  0
  4  5  1  0  0  0
  5  6  1  0  0  0
  6  7  2  0  0  0
  6  8  1  0  0  0
  8  9  1  0  0  0
  9 10  1  0  0  0
 10 11  1  0  0  0
 11 12  2  0  0  0
 12 13  1  0  0  0
 13 14  2  0  0  0
 14 15  1  0  0  0
 15 16  2  0  0  0
 23 19  1  0  0  0
  5  1  1  0  0  0
 10  8  1  0  0  0
 16 11  1  0  0  0
M  END
> <minimizedAffinity>
-9.19007

$$$$
OCNT-2315646


 23 26  0  0  0  0  0  0  0  0999 V2000
   -1.5656   26.6291    5.5986 C   0  0  0  0  0  0  0  0  0  0  0  0
   -1.3758   26.0075    4.3732 C   0  0  0  0  0  0  0  0  0  0  0  0
   -2.4224   25.9710    3.4457 C   0  0  0  0  0  0  0  0  0  0  0  0
   -3.6653   26.5293    3.7098 C   0  0  0  0  0  0  0  0  0  0  0  0
   -4.5946   26.4717    2.7461 N   0  0  0  0  0  0  0  0  0  0  0  0
   -5.7865   27.0427    2.9925 C   0  0  0  0  0  0  0  0  0  0  0  0
   -6.1183   27.6571    4.1855 C   0  0  0  0  0  0  0  0  0  0  0  0
   -5.1813   27.6945    5.2204 C   0  0  0  0  0  0  0  0  0  0  0  0
   -3.8922   27.1380    4.9644 C   0  0  0  0  0  0  0  0  0  0  0  0
   -2.8120   27.1916    5.8812 C   0  0  0  0  0  0  0  0  0  0  0  0
   -5.4957   28.2542    6.4636 N   0  0  0  0  0  0  0  0  0  0  0  0
   -6.9179   28.5121    6.7410 C   0  0  0  0  0  0  0  0  0  0  0  0
   -7.2478   29.9896    6.5297 C   0  0  0  0  0  0  0  0  0  0  0  0
   -6.3289   30.8885    7.3554 C   0  0  0  0  0  0  0  0  0  0  0  0
   -4.8576   30.6026    7.0236 C   0  0  0  0  0  0  0  0  0  0  0  0
   -4.5340   29.1090    7.1823 C   0  0  0  0  0  0  0  0  0  0  0  0
   -3.9521   31.4248    7.8059 N   0  0  0  0  0  0  0  0  0  0  0  0
   -4.2413   32.1374    8.9284 C   0  0  0  0  0  0  0  0  0  0  0  0
   -3.1614   32.7561    9.3456 N   0  0  0  0  0  0  0  0  0  0  0  0
   -2.2196   32.3808    8.4308 C   0  0  0  0  0  0  0  0  0  0  0  0
   -2.6571   31.5657    7.4673 N   0  0  0  0  0  0  0  0  0  0  0  0
   -0.5250   28.0331    7.2085 C   0  0  0  0  0  0  0  0  0  0  0  0
   -0.6368   26.7561    6.5926 O   0  0  0  0  0  0  0  0  0  0  0  0
 22 23  1  0  0  0
 23  1  1  0  0  0
  1  2  2  0  0  0
  2  3  1  0  0  0
  3  4  2  0  0  0
  4  5  1  0  0  0
  5  6  2  0  0  0
  6  7  1  0  0  0
  7  8  2  0  0  0
  8 11  1  0  0  0
 11 12  1  0  0  0
 12 13  1  0  0  0
 13 14  1  0  0  0
 14 15  1  0  0  0
 15 17  1  0  0  0
 17 18  1  0  0  0
 18 19  2  0  0  0
 19 20  1  0  0  0
 20 21  2  0  0  0
 15 16  1  0  0  0
  8  9  1  0  0  0
  9 10  2  0  0  0
 10  1  1  0  0  0
  9  4  1  0  0  0
 16 11  1  0  0  0
 21 17  1  0  0  0
M  END
> <minimizedAffinity>
-8.46086

$$$$
OCNT-2315652


 25 28  0  0  0  0  0  0  0  0999 V2000
   -4.5709   24.9080    4.1908 C   0  0  0  0  0  0  0  0  0  0  0  0
   -4.9416   24.4525    5.2663 O   0  0  0  0  0  0  0  0  0  0  0  0
   -3.5818   25.8543    4.0057 N   0  0  0  0  0  0  0  0  0  0  0  0
   -3.4465   26.1710    3.0508 H   0  0  0  0  0  0  0  0  0  0  0  0
   -5.0209   21.9057    3.1512 C   0  0  0  0  0  0  0  0  0  0  0  0
   -5.3840   23.1891    2.4803 C   0  0  0  0  0  0  0  0  0  0  0  0
   -5.2227   24.4612    2.9143 C   0  0  0  0  0  0  0  0  0  0  0  0
   -5.8588   25.6765    1.7710 S   0  0  0  0  0  0  0  0  0  0  0  0
   -6.3442   24.3931    0.7238 C   0  0  0  0  0  0  0  0  0  0  0  0
   -6.9713   24.1653   -0.4638 C   0  0  0  0  0  0  0  0  0  0  0  0
   -7.0176   22.8044   -0.6994 N   0  0  0  0  0  0  0  0  0  0  0  0
   -6.4185   22.2401    0.3354 C   0  0  0  0  0  0  0  0  0  0  0  0
   -6.0095   23.1773    1.2413 N   0  0  0  0  0  0  0  0  0  0  0  0
   -2.7701   26.4642    4.9829 C   0  0  0  0  0  0  0  0  0  0  0  0
   -1.4135   26.1211    4.9862 C   0  0  0  0  0  0  0  0  0  0  0  0
   -0.5446   26.6893    5.9155 C   0  0  0  0  0  0  0  0  0  0  0  0
   -1.0259   27.5996    6.8600 C   0  0  0  0  0  0  0  0  0  0  0  0
   -2.3842   27.9474    6.8932 C   0  0  0  0  0  0  0  0  0  0  0  0
   -3.2433   27.3700    5.9402 C   0  0  0  0  0  0  0  0  0  0  0  0
   -2.9175   28.8853    7.8911 C   0  0  0  0  0  0  0  0  0  0  0  0
   -2.4230   30.0829    8.3841 C   0  0  0  0  0  0  0  0  0  0  0  0
   -3.3833   30.5435    9.3017 C   0  0  0  0  0  0  0  0  0  0  0  0
   -4.4227   29.7141    9.4007 N   0  0  0  0  0  0  0  0  0  0  0  0
   -4.1230   28.7295    8.5345 N   0  0  0  0  0  0  0  0  0  0  0  0
   -4.7980   27.9793    8.4178 H   0  0  0  0  0  0  0  0  0  0  0  0
  5  6  1  0  0  0
  6  7  2  0  0  0
  7  1  1  0  0  0
  1  2  2  0  0  0
  1  3  1  0  0  0
  3 14  1  0  0  0
 14 15  2  0  0  0
 15 16  1  0  0  0
 16 17  2  0  0  0
 17 18  1  0  0  0
 18 20  1  0  0  0
 20 21  2  0  0  0
 21 22  1  0  0  0
 22 23  2  0  0  0
 23 24  1  0  0  0
 18 19  2  0  0  0
  7  8  1  0  0  0
  8  9  1  0  0  0
  9 10  2  0  0  0
 10 11  1  0  0  0
 11 12  2  0  0  0
 12 13  1  0  0  0
 13  6  1  0  0  0
 19 14  1  0  0  0
 13  9  1  0  0  0
 24 20  1  0  0  0
  3  4  1  0  0  0
 24 25  1  0  0  0
M  END
> <minimizedAffinity>
-8.67675

$$$$
OCNT-2315670


 23 25  0  0  0  0  0  0  0  0999 V2000
   -3.6430   24.8909    3.9187 N   0  0  0  0  0  0  0  0  0  0  0  0
   -4.2730   25.4301    5.1414 C   0  0  0  0  0  0  0  0  0  0  0  0
   -4.0253   26.9291    5.2629 C   0  0  0  0  0  0  0  0  0  0  0  0
   -2.5249   27.2236    5.3758 C   0  0  0  0  0  0  0  0  0  0  0  0
   -1.6622   26.1285    4.7326 C   0  0  0  0  0  0  0  0  0  0  0  0
   -2.3652   25.5192    3.5296 C   0  0  0  0  0  0  0  0  0  0  0  0
   -4.6314   22.1786    3.2246 C   0  0  0  0  0  0  0  0  0  0  0  0
   -4.9187   23.4078    2.5273 N   0  0  0  0  0  0  0  0  0  0  0  0
   -4.5025   24.6735    2.8806 C   0  0  0  0  0  0  0  0  0  0  0  0
   -5.0541   25.5808    2.1043 N   0  0  0  0  0  0  0  0  0  0  0  0
   -5.8001   24.8873    1.1876 C   0  0  0  0  0  0  0  0  0  0  0  0
   -6.5744   25.3650    0.1172 C   0  0  0  0  0  0  0  0  0  0  0  0
   -7.2515   24.4455   -0.6961 C   0  0  0  0  0  0  0  0  0  0  0  0
   -7.1589   23.0757   -0.4471 C   0  0  0  0  0  0  0  0  0  0  0  0
   -6.3936   22.5981    0.6166 C   0  0  0  0  0  0  0  0  0  0  0  0
   -6.3103   21.2813    0.8441 F   0  0  0  0  0  0  0  0  0  0  0  0
   -5.7245   23.5196    1.4203 C   0  0  0  0  0  0  0  0  0  0  0  0
   -2.0146   27.4387    7.0907 S   0  0  0  0  0  0  0  0  0  0  0  0
   -2.3433   25.9380    7.7575 N   0  0  0  0  0  0  0  0  0  0  0  0
   -2.9223   28.3480    7.7503 O   0  0  0  0  0  0  0  0  0  0  0  0
   -0.5815   27.5925    7.1680 O   0  0  0  0  0  0  0  0  0  0  0  0
   -3.0617   26.0245    8.4792 H   0  0  0  0  0  0  0  0  0  0  0  0
   -1.4816   25.5054    8.0961 H   0  0  0  0  0  0  0  0  0  0  0  0
  7  8  1  0  0  0
  8  9  1  0  0  0
  9  1  1  0  0  0
  1  2  1  0  0  0
  2  3  1  0  0  0
  3  4  1  0  0  0
  4 18  1  0  0  0
 18 19  1  0  0  0
 18 20  2  0  0  0
 18 21  2  0  0  0
  4  5  1  0  0  0
  5  6  1  0  0  0
  9 10  2  0  0  0
 10 11  1  0  0  0
 11 12  2  0  0  0
 12 13  1  0  0  0
 13 14  2  0  0  0
 14 15  1  0  0  0
 15 16  1  0  0  0
 15 17  2  0  0  0
 17  8  1  0  0  0
  6  1  1  0  0  0
 17 11  1  0  0  0
 19 22  1  0  0  0
 19 23  1  0  0  0
M  END
> <minimizedAffinity>
-8.39147

$$$$
OCNT-2315672


 25 28  0  0  0  0  0  0  0  0999 V2000
   -5.7543   25.5257    3.7476 C   0  0  0  0  0  0  0  0  0  0  0  0
   -5.7920   26.1001    4.9296 N   0  0  0  0  0  0  0  0  0  0  0  0
   -5.8837   27.4456    4.6143 C   0  0  0  0  0  0  0  0  0  0  0  0
   -5.9024   27.6843    3.2914 N   0  0  0  0  0  0  0  0  0  0  0  0
   -5.8189   26.4214    2.7200 O   0  0  0  0  0  0  0  0  0  0  0  0
   -6.1022   22.0983    0.5351 C   0  0  0  0  0  0  0  0  0  0  0  0
   -6.1163   23.5551    1.0221 C   0  0  0  0  0  0  0  0  0  0  0  0
   -6.8345   24.4255   -0.0157 C   0  0  0  0  0  0  0  0  0  0  0  0
   -6.7830   23.6688    2.4104 C   0  0  0  0  0  0  0  0  0  0  0  0
   -5.6635   24.0683    3.3897 C   0  0  0  0  0  0  0  0  0  0  0  0
   -5.7143   23.2182    4.6673 C   0  0  0  0  0  0  0  0  0  0  0  0
   -4.3833   23.7775    2.6006 C   0  0  0  0  0  0  0  0  0  0  0  0
   -4.7228   24.0120    1.1896 N   0  0  0  0  0  0  0  0  0  0  0  0
   -4.6715   25.0171    1.0043 H   0  0  0  0  0  0  0  0  0  0  0  0
   -5.9527   28.4888    5.6417 C   0  0  0  0  0  0  0  0  0  0  0  0
   -7.1431   29.1695    5.8748 C   0  0  0  0  0  0  0  0  0  0  0  0
   -7.1718   30.1538    6.8581 C   0  0  0  0  0  0  0  0  0  0  0  0
   -6.0168   30.4360    7.5840 C   0  0  0  0  0  0  0  0  0  0  0  0
   -4.8596   29.7169    7.2993 C   0  0  0  0  0  0  0  0  0  0  0  0
   -4.8193   28.7542    6.3422 N   0  0  0  0  0  0  0  0  0  0  0  0
   -3.6545   29.9683    8.0130 N   0  0  0  0  0  0  0  0  0  0  0  0
   -2.4574   29.3094    7.8248 C   0  0  0  0  0  0  0  0  0  0  0  0
   -1.5731   29.8664    8.7157 C   0  0  0  0  0  0  0  0  0  0  0  0
   -2.1795   30.8479    9.4500 N   0  0  0  0  0  0  0  0  0  0  0  0
   -3.4194   30.8870    9.0102 C   0  0  0  0  0  0  0  0  0  0  0  0
  6  7  1  0  0  0
  7  8  1  0  0  0
  7  9  1  0  0  0
  9 10  1  0  0  0
 10 11  1  0  0  0
 10  1  1  0  0  0
  1  2  2  0  0  0
  2  3  1  0  0  0
  3 15  1  0  0  0
 15 16  1  0  0  0
 16 17  2  0  0  0
 17 18  1  0  0  0
 18 19  2  0  0  0
 19 21  1  0  0  0
 21 22  1  0  0  0
 22 23  2  0  0  0
 23 24  1  0  0  0
 24 25  2  0  0  0
 19 20  1  0  0  0
  3  4  2  0  0  0
  4  5  1  0  0  0
 10 12  1  0  0  0
 12 13  1  0  0  0
 13  7  1  0  0  0
  5  1  1  0  0  0
 20 15  2  0  0  0
 25 21  1  0  0  0
 13 14  1  0  0  0
M  END
> <minimizedAffinity>
-8.97700

$$$$
OCNT-2315694


 26 29  0  0  0  0  0  0  0  0999 V2000
   -4.9284   30.7185    7.0785 C   0  0  0  0  0  0  0  0  0  0  0  0
   -5.4456   29.4574    6.7977 C   0  0  0  0  0  0  0  0  0  0  0  0
   -6.6405   29.2960    7.4451 O   0  0  0  0  0  0  0  0  0  0  0  0
   -6.8751   30.4229    8.1594 C   0  0  0  0  0  0  0  0  0  0  0  0
   -5.8560   31.3233    7.9792 C   0  0  0  0  0  0  0  0  0  0  0  0
   -4.9700   28.3575    5.9753 C   0  0  0  0  0  0  0  0  0  0  0  0
   -3.7984   27.9957    5.9741 O   0  0  0  0  0  0  0  0  0  0  0  0
   -5.9693   27.8008    5.1880 N   0  0  0  0  0  0  0  0  0  0  0  0
   -6.8382   28.3157    5.1467 H   0  0  0  0  0  0  0  0  0  0  0  0
   -5.8689   26.6809    4.3351 C   0  0  0  0  0  0  0  0  0  0  0  0
   -5.9496   25.3613    4.7684 C   0  0  0  0  0  0  0  0  0  0  0  0
   -5.8474   24.3494    3.8262 C   0  0  0  0  0  0  0  0  0  0  0  0
   -5.6776   24.5633    2.5045 N   0  0  0  0  0  0  0  0  0  0  0  0
   -5.6041   25.8483    2.1075 C   0  0  0  0  0  0  0  0  0  0  0  0
   -5.6954   26.9277    2.9721 C   0  0  0  0  0  0  0  0  0  0  0  0
   -3.6815   31.3423    6.5237 C   0  0  0  0  0  0  0  0  0  0  0  0
   -3.5054   33.1589    9.2205 C   0  0  0  0  0  0  0  0  0  0  0  0
   -2.9734   31.7634    8.9175 C   0  0  0  0  0  0  0  0  0  0  0  0
   -1.7006   31.4566    9.7390 C   0  0  0  0  0  0  0  0  0  0  0  0
   -0.9255   30.6524    8.7542 C   0  0  0  0  0  0  0  0  0  0  0  0
    0.2063   29.8842    8.9816 C   0  0  0  0  0  0  0  0  0  0  0  0
    0.7882   29.2334    7.8954 C   0  0  0  0  0  0  0  0  0  0  0  0
    0.2413   29.3715    6.6128 C   0  0  0  0  0  0  0  0  0  0  0  0
   -0.8961   30.1597    6.4018 C   0  0  0  0  0  0  0  0  0  0  0  0
   -1.4875   30.7967    7.4821 C   0  0  0  0  0  0  0  0  0  0  0  0
   -2.6163   31.6455    7.4830 N   0  0  0  0  0  0  0  0  0  0  0  0
 17 18  1  0  0  0
 18 19  1  0  0  0
 19 20  1  0  0  0
 20 21  2  0  0  0
 21 22  1  0  0  0
 22 23  2  0  0  0
 23 24  1  0  0  0
 24 25  2  0  0  0
 25 26  1  0  0  0
 26 16  1  0  0  0
 16  1  1  0  0  0
  1  2  2  0  0  0
  2  6  1  0  0  0
  6  7  2  0  0  0
  6  8  1  0  0  0
  8 10  1  0  0  0
 10 11  2  0  0  0
 11 12  1  0  0  0
 12 13  2  0  0  0
 13 14  1  0  0  0
 14 15  2  0  0  0
  2  3  1  0  0  0
  3  4  1  0  0  0
  4  5  2  0  0  0
 26 18  1  0  0  0
  5  1  1  0  0  0
 25 20  1  0  0  0
 15 10  1  0  0  0
  8  9  1  0  0  0
M  END
> <minimizedAffinity>
-9.87668

$$$$
OCNT-2315699


 22 24  0  0  0  0  0  0  0  0999 V2000
   -2.6397   28.2501    7.1664 C   0  0  0  0  0  0  0  0  0  0  0  0
   -2.0166   29.6172    6.7817 C   0  0  0  0  0  0  0  0  0  0  0  0
   -0.4924   29.4625    6.6061 C   0  0  0  0  0  0  0  0  0  0  0  0
    0.2342   29.2107    7.9242 C   0  0  0  0  0  0  0  0  0  0  0  0
   -0.0943   30.2772    8.9606 C   0  0  0  0  0  0  0  0  0  0  0  0
   -1.5988   30.4865    9.1420 C   0  0  0  0  0  0  0  0  0  0  0  0
   -2.3061   30.7722    7.7955 C   0  0  0  0  0  0  0  0  0  0  0  0
   -3.7612   31.0268    7.9234 N   0  0  0  0  0  0  0  0  0  0  0  0
   -4.1082   32.4252    7.6089 C   0  0  0  0  0  0  0  0  0  0  0  0
   -5.5224   32.5839    8.1482 C   0  0  0  0  0  0  0  0  0  0  0  0
   -5.6815   31.4758    9.1786 C   0  0  0  0  0  0  0  0  0  0  0  0
   -4.3107   30.8254    9.2685 C   0  0  0  0  0  0  0  0  0  0  0  0
   -4.0706   28.1759    6.8787 N   0  0  0  0  0  0  0  0  0  0  0  0
   -4.5034   29.0746    7.1304 H   0  0  0  0  0  0  0  0  0  0  0  0
   -5.6444   28.2962    5.0313 C   0  0  0  0  0  0  0  0  0  0  0  0
   -6.0191   27.8979    3.7416 C   0  0  0  0  0  0  0  0  0  0  0  0
   -5.2105   27.0206    3.0323 C   0  0  0  0  0  0  0  0  0  0  0  0
   -4.0567   26.5730    3.6441 C   0  0  0  0  0  0  0  0  0  0  0  0
   -3.6709   26.9445    4.8850 N   0  0  0  0  0  0  0  0  0  0  0  0
   -4.4499   27.8094    5.5792 C   0  0  0  0  0  0  0  0  0  0  0  0
   -7.2314   29.8955    6.3138 N   0  0  0  0  0  0  0  0  0  0  0  0
   -6.4954   29.1917    5.7545 C   0  0  0  0  0  0  0  0  0  0  0  0
 21 22  3  0  0  0
 22 15  1  0  0  0
 15 16  1  0  0  0
 16 17  2  0  0  0
 17 18  1  0  0  0
 18 19  2  0  0  0
 19 20  1  0  0  0
 20 13  1  0  0  0
 13  1  1  0  0  0
  1  2  1  0  0  0
  2  3  1  0  0  0
  3  4  1  0  0  0
  4  5  1  0  0  0
  5  6  1  0  0  0
  6  7  1  0  0  0
  7  8  1  0  0  0
  8  9  1  0  0  0
  9 10  1  0  0  0
 10 11  1  0  0  0
 11 12  1  0  0  0
 20 15  2  0  0  0
  7  2  1  0  0  0
 12  8  1  0  0  0
 13 14  1  0  0  0
M  END
> <minimizedAffinity>
-7.90705

$$$$
OCNT-2315701


 28 30  0  0  0  0  0  0  0  0999 V2000
   -4.4551   28.0682    6.8505 N   0  0  0  0  0  0  0  0  0  0  0  0
   -5.3236   28.6754    5.9464 C   0  0  0  0  0  0  0  0  0  0  0  0
   -5.2232   29.8178    5.5102 O   0  0  0  0  0  0  0  0  0  0  0  0
   -4.6720   27.1123    7.0982 H   0  0  0  0  0  0  0  0  0  0  0  0
   -0.9061   29.6280    8.5904 C   0  0  0  0  0  0  0  0  0  0  0  0
   -0.9174   28.3802    7.9625 C   0  0  0  0  0  0  0  0  0  0  0  0
   -2.0927   27.8591    7.3850 C   0  0  0  0  0  0  0  0  0  0  0  0
   -2.0160   26.5077    6.7221 C   0  0  0  0  0  0  0  0  0  0  0  0
   -3.2854   28.6090    7.4365 C   0  0  0  0  0  0  0  0  0  0  0  0
   -3.2636   29.8580    8.0661 C   0  0  0  0  0  0  0  0  0  0  0  0
   -2.0869   30.3772    8.6441 C   0  0  0  0  0  0  0  0  0  0  0  0
   -2.1049   31.7309    9.3113 C   0  0  0  0  0  0  0  0  0  0  0  0
   -1.1627   32.5846    8.8183 F   0  0  0  0  0  0  0  0  0  0  0  0
   -1.8946   31.6668   10.6579 F   0  0  0  0  0  0  0  0  0  0  0  0
   -3.2918   32.3907    9.1684 F   0  0  0  0  0  0  0  0  0  0  0  0
    1.3970   29.4429    9.2066 C   0  0  0  0  0  0  0  0  0  0  0  0
    0.1919   30.1971    9.1745 O   0  0  0  0  0  0  0  0  0  0  0  0
   -6.5005   27.7548    5.5857 C   0  0  0  0  0  0  0  0  0  0  0  0
   -6.1209   26.7028    4.6714 N   0  0  0  0  0  0  0  0  0  0  0  0
   -6.1126   25.0581    5.1447 S   0  0  0  0  0  0  0  0  0  0  0  0
   -5.8071   24.5603    3.4731 C   0  0  0  0  0  0  0  0  0  0  0  0
   -5.6465   23.2729    2.9853 C   0  0  0  0  0  0  0  0  0  0  0  0
   -5.4079   23.1001    1.6168 C   0  0  0  0  0  0  0  0  0  0  0  0
   -5.3323   24.2078    0.7558 C   0  0  0  0  0  0  0  0  0  0  0  0
   -5.4952   25.5026    1.2531 C   0  0  0  0  0  0  0  0  0  0  0  0
   -5.7303   25.6543    2.6130 C   0  0  0  0  0  0  0  0  0  0  0  0
   -5.9314   26.9328    3.3193 C   0  0  0  0  0  0  0  0  0  0  0  0
   -5.9217   28.0180    2.7587 O   0  0  0  0  0  0  0  0  0  0  0  0
 16 17  1  0  0  0
 17  5  1  0  0  0
  5  6  2  0  0  0
  6  7  1  0  0  0
  7  8  1  0  0  0
  7  9  2  0  0  0
  9  1  1  0  0  0
  1  2  1  0  0  0
  2  3  2  0  0  0
  2 18  1  0  0  0
 18 19  1  0  0  0
 19 20  1  0  0  0
 20 21  1  0  0  0
 21 22  2  0  0  0
 22 23  1  0  0  0
 23 24  2  0  0  0
 24 25  1  0  0  0
 25 26  2  0  0  0
 26 27  1  0  0  0
 27 28  2  0  0  0
  9 10  1  0  0  0
 10 11  2  0  0  0
 11 12  1  0  0  0
 12 13  1  0  0  0
 12 14  1  0  0  0
 12 15  1  0  0  0
 11  5  1  0  0  0
 27 19  1  0  0  0
 26 21  1  0  0  0
  1  4  1  0  0  0
M  END
> <minimizedAffinity>
-9.57687

$$$$
OCNT-2315705


 24 27  0  0  0  0  0  0  0  0999 V2000
   -7.4807   21.9571    6.9267 C   0  0  0  0  0  0  0  0  0  0  0  0
   -7.2692   22.4917    5.5413 C   0  0  0  0  0  0  0  0  0  0  0  0
   -8.2459   22.3302    4.5589 C   0  0  0  0  0  0  0  0  0  0  0  0
   -8.0312   22.7882    3.2527 C   0  0  0  0  0  0  0  0  0  0  0  0
   -6.8286   23.4264    2.8910 C   0  0  0  0  0  0  0  0  0  0  0  0
   -5.8444   23.5831    3.8846 C   0  0  0  0  0  0  0  0  0  0  0  0
   -6.0603   23.0965    5.1901 C   0  0  0  0  0  0  0  0  0  0  0  0
   -4.4843   24.0784    3.6251 C   0  0  0  0  0  0  0  0  0  0  0  0
   -3.7759   23.3791    2.9023 O   0  0  0  0  0  0  0  0  0  0  0  0
   -4.0380   25.2464    4.2173 N   0  0  0  0  0  0  0  0  0  0  0  0
   -2.6237   25.6260    4.0833 C   0  0  0  0  0  0  0  0  0  0  0  0
   -2.3868   26.8231    5.0049 C   0  0  0  0  0  0  0  0  0  0  0  0
   -3.7889   27.2363    5.3237 C   0  0  0  0  0  0  0  0  0  0  0  0
   -4.1833   28.3781    6.0062 C   0  0  0  0  0  0  0  0  0  0  0  0
   -5.5426   28.5691    6.2190 C   0  0  0  0  0  0  0  0  0  0  0  0
   -5.9594   29.6614    6.8722 F   0  0  0  0  0  0  0  0  0  0  0  0
   -6.4847   27.6448    5.7617 C   0  0  0  0  0  0  0  0  0  0  0  0
   -6.0743   26.4927    5.0788 C   0  0  0  0  0  0  0  0  0  0  0  0
   -4.7182   26.2883    4.8746 C   0  0  0  0  0  0  0  0  0  0  0  0
   -6.6880   23.9050    1.5533 N   0  0  0  0  0  0  0  0  0  0  0  0
   -7.1545   23.2998    0.4069 C   0  0  0  0  0  0  0  0  0  0  0  0
   -6.9250   24.0475   -0.6469 N   0  0  0  0  0  0  0  0  0  0  0  0
   -6.2799   25.1718   -0.2158 N   0  0  0  0  0  0  0  0  0  0  0  0
   -6.1365   25.0734    1.0874 C   0  0  0  0  0  0  0  0  0  0  0  0
  1  2  1  0  0  0
  2  3  1  0  0  0
  3  4  2  0  0  0
  4  5  1  0  0  0
  5 20  1  0  0  0
 20 21  1  0  0  0
 21 22  2  0  0  0
 22 23  1  0  0  0
 23 24  2  0  0  0
  5  6  2  0  0  0
  6  8  1  0  0  0
  8  9  2  0  0  0
  8 10  1  0  0  0
 10 11  1  0  0  0
 11 12  1  0  0  0
 12 13  1  0  0  0
 13 14  1  0  0  0
 14 15  2  0  0  0
 15 16  1  0  0  0
 15 17  1  0  0  0
 17 18  2  0  0  0
 18 19  1  0  0  0
  6  7  1  0  0  0
  7  2  2  0  0  0
 24 20  1  0  0  0
 19 10  1  0  0  0
 19 13  2  0  0  0
M  END
> <minimizedAffinity>
-8.53945

$$$$
OCNT-2315717


 31 33  0  0  0  0  0  0  0  0999 V2000
   -3.2525   31.0689    8.2438 C   0  0  0  0  0  0  0  0  0  0  0  0
   -2.8669   31.9347    9.2690 C   0  0  0  0  0  0  0  0  0  0  0  0
   -1.5447   31.9550    9.7289 C   0  0  0  0  0  0  0  0  0  0  0  0
   -0.5950   31.1013    9.1755 C   0  0  0  0  0  0  0  0  0  0  0  0
   -0.9830   30.2167    8.1702 C   0  0  0  0  0  0  0  0  0  0  0  0
   -2.2993   30.2063    7.6926 C   0  0  0  0  0  0  0  0  0  0  0  0
   -5.5534   29.2839    8.8975 O   0  0  0  0  0  0  0  0  0  0  0  0
   -5.5933   30.1882    8.0718 C   0  0  0  0  0  0  0  0  0  0  0  0
   -4.5511   31.0197    7.6996 N   0  0  0  0  0  0  0  0  0  0  0  0
   -4.7530   31.6959    6.9781 H   0  0  0  0  0  0  0  0  0  0  0  0
   -6.8843   30.5051    7.3440 C   0  0  0  0  0  0  0  0  0  0  0  0
   -7.2098   29.4487    6.2977 C   0  0  0  0  0  0  0  0  0  0  0  0
   -6.1616   29.5197    4.7934 S   0  0  0  0  0  0  0  0  0  0  0  0
   -6.0181   27.7976    4.3567 C   0  0  0  0  0  0  0  0  0  0  0  0
   -6.1783   26.7745    5.2966 C   0  0  0  0  0  0  0  0  0  0  0  0
   -6.0544   25.4351    4.9114 C   0  0  0  0  0  0  0  0  0  0  0  0
   -5.7865   25.1189    3.5818 C   0  0  0  0  0  0  0  0  0  0  0  0
   -5.6290   23.4732    3.1108 Cl  0  0  0  0  0  0  0  0  0  0  0  0
   -5.6488   26.1294    2.6328 C   0  0  0  0  0  0  0  0  0  0  0  0
   -5.7681   27.4660    3.0198 C   0  0  0  0  0  0  0  0  0  0  0  0
    0.2083   29.1321    7.4275 S   0  0  0  0  0  0  0  0  0  0  0  0
    0.3751   29.5713    6.0560 O   0  0  0  0  0  0  0  0  0  0  0  0
    1.3395   29.0060    8.3210 O   0  0  0  0  0  0  0  0  0  0  0  0
   -0.6162   27.6772    7.3485 N   0  0  0  0  0  0  0  0  0  0  0  0
   -0.6641   27.1860    8.2409 H   0  0  0  0  0  0  0  0  0  0  0  0
   -1.2001   27.1183    6.2150 C   0  0  0  0  0  0  0  0  0  0  0  0
   -2.5049   27.1209    5.7882 C   0  0  0  0  0  0  0  0  0  0  0  0
   -2.5309   26.4236    4.6139 N   0  0  0  0  0  0  0  0  0  0  0  0
   -1.3237   25.9669    4.2367 N   0  0  0  0  0  0  0  0  0  0  0  0
   -0.5176   26.3813    5.2171 C   0  0  0  0  0  0  0  0  0  0  0  0
   -3.3303   26.2186    4.0225 H   0  0  0  0  0  0  0  0  0  0  0  0
  7  8  2  0  0  0
  8 11  1  0  0  0
 11 12  1  0  0  0
 12 13  1  0  0  0
 13 14  1  0  0  0
 14 15  1  0  0  0
 15 16  2  0  0  0
 16 17  1  0  0  0
 17 18  1  0  0  0
 17 19  2  0  0  0
 19 20  1  0  0  0
  8  9  1  0  0  0
  9  1  1  0  0  0
  1  2  1  0  0  0
  2  3  2  0  0  0
  3  4  1  0  0  0
  4  5  2  0  0  0
  5 21  1  0  0  0
 21 22  2  0  0  0
 21 23  2  0  0  0
 21 24  1  0  0  0
 24 26  1  0  0  0
 26 27  2  0  0  0
 27 28  1  0  0  0
 28 29  1  0  0  0
 29 30  2  0  0  0
  5  6  1  0  0  0
 20 14  2  0  0  0
  6  1  2  0  0  0
 30 26  1  0  0  0
  9 10  1  0  0  0
 24 25  1  0  0  0
 28 31  1  0  0  0
M  END
> <minimizedAffinity>
-9.19028

$$$$
OCNT-2315727


 23 25  0  0  0  0  0  0  0  0999 V2000
   -6.0814   28.2517    5.2015 C   0  0  0  0  0  0  0  0  0  0  0  0
   -6.5320   29.3554    4.9052 O   0  0  0  0  0  0  0  0  0  0  0  0
   -5.4401   28.0140    6.3859 N   0  0  0  0  0  0  0  0  0  0  0  0
   -5.0165   27.1123    6.5853 H   0  0  0  0  0  0  0  0  0  0  0  0
   -5.3762   21.2102    3.2047 C   0  0  0  0  0  0  0  0  0  0  0  0
   -4.8829   22.6468    3.2126 C   0  0  0  0  0  0  0  0  0  0  0  0
   -5.4626   23.5005    2.0724 C   0  0  0  0  0  0  0  0  0  0  0  0
   -5.9295   24.7870    2.7523 C   0  0  0  0  0  0  0  0  0  0  0  0
   -5.6172   26.0767    1.9940 C   0  0  0  0  0  0  0  0  0  0  0  0
   -5.4792   27.2828    2.9404 C   0  0  0  0  0  0  0  0  0  0  0  0
   -6.2147   27.0563    4.2714 C   0  0  0  0  0  0  0  0  0  0  0  0
   -5.7696   25.7540    4.9758 C   0  0  0  0  0  0  0  0  0  0  0  0
   -5.2194   24.7798    4.0302 N   0  0  0  0  0  0  0  0  0  0  0  0
   -5.2529   23.3971    4.4928 C   0  0  0  0  0  0  0  0  0  0  0  0
   -5.2160   29.0596    7.3616 C   0  0  0  0  0  0  0  0  0  0  0  0
   -3.8260   29.5922    7.1829 C   0  0  0  0  0  0  0  0  0  0  0  0
   -2.7274   28.9152    7.4615 N   0  0  0  0  0  0  0  0  0  0  0  0
   -1.6078   29.6943    7.2110 C   0  0  0  0  0  0  0  0  0  0  0  0
   -1.8855   30.9582    6.7255 C   0  0  0  0  0  0  0  0  0  0  0  0
   -3.5778   31.1854    6.5909 S   0  0  0  0  0  0  0  0  0  0  0  0
   -0.2439   29.1157    7.4701 C   0  0  0  0  0  0  0  0  0  0  0  0
    0.7031   29.3546    6.2912 C   0  0  0  0  0  0  0  0  0  0  0  0
    0.3540   29.6758    8.7628 C   0  0  0  0  0  0  0  0  0  0  0  0
  5  6  1  0  0  0
  6  7  1  0  0  0
  7  8  1  0  0  0
  8  9  1  0  0  0
  9 10  1  0  0  0
 10 11  1  0  0  0
 11  1  1  0  0  0
  1  2  2  0  0  0
  1  3  1  0  0  0
  3 15  1  0  0  0
 15 16  1  0  0  0
 16 17  2  0  0  0
 17 18  1  0  0  0
 18 21  1  0  0  0
 21 22  1  0  0  0
 21 23  1  0  0  0
 18 19  2  0  0  0
 19 20  1  0  0  0
 11 12  1  0  0  0
 12 13  1  0  0  0
 13 14  1  0  0  0
 14  6  1  0  0  0
 13  8  1  0  0  0
 20 16  1  0  0  0
  3  4  1  0  0  0
M  END
> <minimizedAffinity>
-8.78652

$$$$
OCNT-2315734


 28 30  0  0  0  0  0  0  0  0999 V2000
   -3.9916   28.8064    6.3894 C   0  0  0  0  0  0  0  0  0  0  0  0
   -3.2931   27.8559    6.7250 O   0  0  0  0  0  0  0  0  0  0  0  0
   -4.9456   28.7296    5.3806 N   0  0  0  0  0  0  0  0  0  0  0  0
   -5.4420   29.5924    5.1944 H   0  0  0  0  0  0  0  0  0  0  0  0
   -5.3056   27.6142    4.5973 C   0  0  0  0  0  0  0  0  0  0  0  0
   -5.2493   27.5830    3.2008 C   0  0  0  0  0  0  0  0  0  0  0  0
   -5.6083   26.4262    2.4998 C   0  0  0  0  0  0  0  0  0  0  0  0
   -6.0291   25.2950    3.1894 C   0  0  0  0  0  0  0  0  0  0  0  0
   -6.3916   24.2150    2.4841 F   0  0  0  0  0  0  0  0  0  0  0  0
   -6.1034   25.3118    4.5784 C   0  0  0  0  0  0  0  0  0  0  0  0
   -5.7359   26.4691    5.2832 C   0  0  0  0  0  0  0  0  0  0  0  0
   -6.5410   24.1023    5.3037 C   0  0  0  0  0  0  0  0  0  0  0  0
   -7.8296   24.1050    5.7678 N   0  0  0  0  0  0  0  0  0  0  0  0
   -5.8054   23.1442    5.4863 O   0  0  0  0  0  0  0  0  0  0  0  0
   -8.1561   23.2192    6.1362 H   0  0  0  0  0  0  0  0  0  0  0  0
   -8.5271   24.7282    5.3854 H   0  0  0  0  0  0  0  0  0  0  0  0
   -4.9032   33.6638    8.2933 C   0  0  0  0  0  0  0  0  0  0  0  0
   -4.2982   32.3699    7.8765 C   0  0  0  0  0  0  0  0  0  0  0  0
   -3.0240   32.0804    7.9841 N   0  0  0  0  0  0  0  0  0  0  0  0
   -2.7771   30.7915    7.5224 C   0  0  0  0  0  0  0  0  0  0  0  0
   -3.8856   30.1205    7.0203 C   0  0  0  0  0  0  0  0  0  0  0  0
   -5.2736   31.1362    7.2041 S   0  0  0  0  0  0  0  0  0  0  0  0
   -1.4161   30.2757    7.5887 C   0  0  0  0  0  0  0  0  0  0  0  0
   -0.6886   29.9685    6.4321 C   0  0  0  0  0  0  0  0  0  0  0  0
    0.6038   29.4456    6.5285 C   0  0  0  0  0  0  0  0  0  0  0  0
    1.1724   29.2123    7.7796 C   0  0  0  0  0  0  0  0  0  0  0  0
    0.4491   29.4956    8.9367 C   0  0  0  0  0  0  0  0  0  0  0  0
   -0.8419   30.0197    8.8414 C   0  0  0  0  0  0  0  0  0  0  0  0
 17 18  1  0  0  0
 18 19  2  0  0  0
 19 20  1  0  0  0
 20 23  1  0  0  0
 23 24  2  0  0  0
 24 25  1  0  0  0
 25 26  2  0  0  0
 26 27  1  0  0  0
 27 28  2  0  0  0
 20 21  2  0  0  0
 21  1  1  0  0  0
  1  2  2  0  0  0
  1  3  1  0  0  0
  3  5  1  0  0  0
  5  6  1  0  0  0
  6  7  2  0  0  0
  7  8  1  0  0  0
  8  9  1  0  0  0
  8 10  2  0  0  0
 10 12  1  0  0  0
 12 13  1  0  0  0
 12 14  2  0  0  0
 10 11  1  0  0  0
 21 22  1  0  0  0
 22 18  1  0  0  0
 28 23  1  0  0  0
 11  5  2  0  0  0
  3  4  1  0  0  0
 13 15  1  0  0  0
 13 16  1  0  0  0
M  END
> <minimizedAffinity>
-9.72613

$$$$
OCNT-2315739


 24 26  0  0  0  0  0  0  0  0999 V2000
   -4.2179   28.3226    7.1873 N   0  0  0  0  0  0  0  0  0  0  0  0
   -4.4949   28.6116    8.1237 H   0  0  0  0  0  0  0  0  0  0  0  0
   -5.5970   26.1699    2.7060 C   0  0  0  0  0  0  0  0  0  0  0  0
   -5.1525   25.5066    3.8647 C   0  0  0  0  0  0  0  0  0  0  0  0
   -5.0419   26.1883    5.0816 C   0  0  0  0  0  0  0  0  0  0  0  0
   -5.3603   27.5393    5.1209 C   0  0  0  0  0  0  0  0  0  0  0  0
   -5.8124   28.1934    3.9660 C   0  0  0  0  0  0  0  0  0  0  0  0
   -5.9392   27.5257    2.7570 C   0  0  0  0  0  0  0  0  0  0  0  0
   -6.1620   29.6177    4.2601 C   0  0  0  0  0  0  0  0  0  0  0  0
   -5.4007   29.8404    5.5717 C   0  0  0  0  0  0  0  0  0  0  0  0
   -5.3784   28.4812    6.3069 C   0  0  0  0  0  0  0  0  0  0  0  0
   -5.8013   24.8632    0.4736 N   0  0  0  0  0  0  0  0  0  0  0  0
   -5.7105   25.4496    1.4714 C   0  0  0  0  0  0  0  0  0  0  0  0
   -3.0752   29.1551    6.8011 C   0  0  0  0  0  0  0  0  0  0  0  0
   -2.5897   30.0789    7.8900 C   0  0  0  0  0  0  0  0  0  0  0  0
   -3.5130   30.8781    8.5646 C   0  0  0  0  0  0  0  0  0  0  0  0
   -3.1963   31.7635    9.5359 N   0  0  0  0  0  0  0  0  0  0  0  0
   -1.8961   31.8669    9.8655 C   0  0  0  0  0  0  0  0  0  0  0  0
   -0.8950   31.1254    9.2641 C   0  0  0  0  0  0  0  0  0  0  0  0
   -1.2348   30.2121    8.2536 C   0  0  0  0  0  0  0  0  0  0  0  0
   -0.1499   29.4006    7.5931 C   0  0  0  0  0  0  0  0  0  0  0  0
    1.0634   29.5680    8.1896 F   0  0  0  0  0  0  0  0  0  0  0  0
   -0.4046   28.0635    7.6290 F   0  0  0  0  0  0  0  0  0  0  0  0
    0.0402   29.7061    6.2793 F   0  0  0  0  0  0  0  0  0  0  0  0
 12 13  3  0  0  0
 13  3  1  0  0  0
  3  4  1  0  0  0
  4  5  2  0  0  0
  5  6  1  0  0  0
  6  7  2  0  0  0
  7  8  1  0  0  0
  7  9  1  0  0  0
  9 10  1  0  0  0
 10 11  1  0  0  0
 11  1  1  0  0  0
  1 14  1  0  0  0
 14 15  1  0  0  0
 15 16  2  0  0  0
 16 17  1  0  0  0
 17 18  2  0  0  0
 18 19  1  0  0  0
 19 20  2  0  0  0
 20 21  1  0  0  0
 21 22  1  0  0  0
 21 23  1  0  0  0
 21 24  1  0  0  0
  8  3  2  0  0  0
 20 15  1  0  0  0
 11  6  1  0  0  0
  1  2  1  0  0  0
M  END
> <minimizedAffinity>
-9.10663

$$$$
OCNT-2315757


 24 27  0  0  0  0  0  0  0  0999 V2000
   -5.7658   24.7839    3.1119 C   0  0  0  0  0  0  0  0  0  0  0  0
   -7.4512   23.5838   -0.6936 C   0  0  0  0  0  0  0  0  0  0  0  0
   -7.5222   22.7201    0.3969 C   0  0  0  0  0  0  0  0  0  0  0  0
   -6.9761   23.0980    1.6242 C   0  0  0  0  0  0  0  0  0  0  0  0
   -6.3439   24.3436    1.7742 C   0  0  0  0  0  0  0  0  0  0  0  0
   -6.2875   25.2067    0.6679 C   0  0  0  0  0  0  0  0  0  0  0  0
   -6.8353   24.8262   -0.5586 C   0  0  0  0  0  0  0  0  0  0  0  0
   -4.7009   25.8073    2.9614 N   0  0  0  0  0  0  0  0  0  0  0  0
   -3.8283   25.4141    3.3186 H   0  0  0  0  0  0  0  0  0  0  0  0
   -4.9534   27.0561    3.7179 C   0  0  0  0  0  0  0  0  0  0  0  0
   -5.8976   27.9529    2.8518 C   0  0  0  0  0  0  0  0  0  0  0  0
   -6.1388   29.3500    3.4699 C   0  0  0  0  0  0  0  0  0  0  0  0
   -6.3977   29.2375    4.9198 C   0  0  0  0  0  0  0  0  0  0  0  0
   -6.1095   28.1052    5.6333 C   0  0  0  0  0  0  0  0  0  0  0  0
   -5.5526   26.8289    5.1402 C   0  0  0  0  0  0  0  0  0  0  0  0
   -6.4296   28.2684    6.9355 O   0  0  0  0  0  0  0  0  0  0  0  0
   -6.9424   29.5533    7.1038 N   0  0  0  0  0  0  0  0  0  0  0  0
   -6.9155   30.1125    5.8869 C   0  0  0  0  0  0  0  0  0  0  0  0
   -5.2470   23.5128    3.8369 C   0  0  0  0  0  0  0  0  0  0  0  0
   -6.0650   23.1278    4.9706 N   0  0  0  0  0  0  0  0  0  0  0  0
   -5.7362   22.2185    5.9362 C   0  0  0  0  0  0  0  0  0  0  0  0
   -6.8298   22.1788    6.7695 C   0  0  0  0  0  0  0  0  0  0  0  0
   -7.8013   23.0443    6.3376 N   0  0  0  0  0  0  0  0  0  0  0  0
   -7.3042   23.6185    5.2658 C   0  0  0  0  0  0  0  0  0  0  0  0
  2  3  2  0  0  0
  3  4  1  0  0  0
  4  5  2  0  0  0
  5  1  1  0  0  0
  1 19  1  0  0  0
 19 20  1  0  0  0
 20 21  1  0  0  0
 21 22  2  0  0  0
 22 23  1  0  0  0
 23 24  2  0  0  0
  1  8  1  0  0  0
  8 10  1  0  0  0
 10 11  1  0  0  0
 11 12  1  0  0  0
 12 13  1  0  0  0
 13 14  2  0  0  0
 14 15  1  0  0  0
 14 16  1  0  0  0
 16 17  1  0  0  0
 17 18  2  0  0  0
  5  6  1  0  0  0
  6  7  2  0  0  0
  7  2  1  0  0  0
 24 20  1  0  0  0
 15 10  1  0  0  0
 18 13  1  0  0  0
  8  9  1  0  0  0
M  END
> <minimizedAffinity>
-8.39054

$$$$
OCNT-2315764


 22 24  0  0  0  0  0  0  0  0999 V2000
   -7.1002   29.4251    5.7286 O   0  0  0  0  0  0  0  0  0  0  0  0
   -6.1056   29.2849    4.6885 S   0  0  0  0  0  0  0  0  0  0  0  0
   -6.1641   30.0613    3.4708 O   0  0  0  0  0  0  0  0  0  0  0  0
   -6.0081   27.5827    4.2753 C   0  0  0  0  0  0  0  0  0  0  0  0
   -6.1395   26.6267    5.2603 C   0  0  0  0  0  0  0  0  0  0  0  0
   -6.0692   25.2956    5.0153 N   0  0  0  0  0  0  0  0  0  0  0  0
   -5.8374   24.8939    3.7507 C   0  0  0  0  0  0  0  0  0  0  0  0
   -5.7516   23.5373    3.4693 C   0  0  0  0  0  0  0  0  0  0  0  0
   -5.5056   23.0690    2.1751 C   0  0  0  0  0  0  0  0  0  0  0  0
   -5.3406   23.9722    1.1309 C   0  0  0  0  0  0  0  0  0  0  0  0
   -5.4229   25.3401    1.3829 C   0  0  0  0  0  0  0  0  0  0  0  0
   -5.6711   25.8081    2.6850 C   0  0  0  0  0  0  0  0  0  0  0  0
   -5.7586   27.1771    2.9684 C   0  0  0  0  0  0  0  0  0  0  0  0
   -4.6282   29.5624    5.4169 N   0  0  0  0  0  0  0  0  0  0  0  0
   -3.8536   29.0019    5.0642 H   0  0  0  0  0  0  0  0  0  0  0  0
   -4.5594   30.1181    6.7730 C   0  0  0  0  0  0  0  0  0  0  0  0
   -3.8866   29.1269    7.7398 C   0  0  0  0  0  0  0  0  0  0  0  0
   -2.9557   29.7830    8.6657 N   0  0  0  0  0  0  0  0  0  0  0  0
   -1.8027   30.3903    7.9927 C   0  0  0  0  0  0  0  0  0  0  0  0
   -1.2474   31.3509    9.0365 C   0  0  0  0  0  0  0  0  0  0  0  0
   -2.4081   31.6283    9.9853 C   0  0  0  0  0  0  0  0  0  0  0  0
   -3.5927   30.8939    9.3793 C   0  0  0  0  0  0  0  0  0  0  0  0
  1  2  2  0  0  0
  2  3  2  0  0  0
  2 14  1  0  0  0
 14 16  1  0  0  0
 16 17  1  0  0  0
 17 18  1  0  0  0
 18 19  1  0  0  0
 19 20  1  0  0  0
 20 21  1  0  0  0
 21 22  1  0  0  0
  2  4  1  0  0  0
  4  5  1  0  0  0
  5  6  2  0  0  0
  6  7  1  0  0  0
  7  8  2  0  0  0
  8  9  1  0  0  0
  9 10  2  0  0  0
 10 11  1  0  0  0
 11 12  2  0  0  0
 12 13  1  0  0  0
 22 18  1  0  0  0
 13  4  2  0  0  0
 12  7  1  0  0  0
 14 15  1  0  0  0
M  END
> <minimizedAffinity>
-8.19532

$$$$
OCNT-2315770


 34 37  0  0  0  0  0  0  0  0999 V2000
   -3.3248   25.1884    6.1723 C   0  0  0  0  0  0  0  0  0  0  0  0
   -2.9513   26.5064    5.4865 C   0  0  0  0  0  0  0  0  0  0  0  0
   -4.1148   27.3392    4.9719 C   0  0  0  0  0  0  0  0  0  0  0  0
   -4.6001   28.4355    5.7100 C   0  0  0  0  0  0  0  0  0  0  0  0
   -5.6648   29.2092    5.2451 C   0  0  0  0  0  0  0  0  0  0  0  0
   -6.2591   28.9105    4.0264 C   0  0  0  0  0  0  0  0  0  0  0  0
   -5.7806   27.8472    3.2650 C   0  0  0  0  0  0  0  0  0  0  0  0
   -4.7152   27.0603    3.7227 C   0  0  0  0  0  0  0  0  0  0  0  0
   -4.2137   26.0057    2.8852 N   0  0  0  0  0  0  0  0  0  0  0  0
   -3.2114   25.8200    2.9338 H   0  0  0  0  0  0  0  0  0  0  0  0
   -5.0471   24.5286    2.8726 S   0  0  0  0  0  0  0  0  0  0  0  0
   -4.0494   23.5069    2.6589 O   0  0  0  0  0  0  0  0  0  0  0  0
   -5.9757   24.4834    3.9777 O   0  0  0  0  0  0  0  0  0  0  0  0
   -6.0142   24.5075    1.3770 C   0  0  0  0  0  0  0  0  0  0  0  0
   -6.0767   25.3796    0.3043 C   0  0  0  0  0  0  0  0  0  0  0  0
   -6.9804   24.9349   -0.7033 C   0  0  0  0  0  0  0  0  0  0  0  0
   -7.5719   23.7368   -0.3682 C   0  0  0  0  0  0  0  0  0  0  0  0
   -7.0408   23.1579    1.1527 S   0  0  0  0  0  0  0  0  0  0  0  0
   -2.1589   27.3246    6.3922 N   0  0  0  0  0  0  0  0  0  0  0  0
   -0.7960   27.4574    6.2606 C   0  0  0  0  0  0  0  0  0  0  0  0
   -0.1757   27.0327    5.2937 O   0  0  0  0  0  0  0  0  0  0  0  0
   -2.6049   27.6424    7.2447 H   0  0  0  0  0  0  0  0  0  0  0  0
   -0.1622   28.2147    7.4076 C   0  0  0  0  0  0  0  0  0  0  0  0
    0.0516   29.6850    7.0600 C   0  0  0  0  0  0  0  0  0  0  0  0
   -0.9759   30.5623    7.7350 C   0  0  0  0  0  0  0  0  0  0  0  0
   -0.8088   30.9570    9.0659 C   0  0  0  0  0  0  0  0  0  0  0  0
   -1.7376   31.7879    9.7038 C   0  0  0  0  0  0  0  0  0  0  0  0
   -2.8413   32.2184    8.9611 C   0  0  0  0  0  0  0  0  0  0  0  0
   -3.8982   33.0245    9.3223 N   0  0  0  0  0  0  0  0  0  0  0  0
   -4.7579   33.1796    8.2648 C   0  0  0  0  0  0  0  0  0  0  0  0
   -4.2542   32.4624    7.2011 C   0  0  0  0  0  0  0  0  0  0  0  0
   -3.0432   31.8476    7.6326 C   0  0  0  0  0  0  0  0  0  0  0  0
   -2.0975   31.0077    7.0130 C   0  0  0  0  0  0  0  0  0  0  0  0
   -4.0173   33.4380   10.2356 H   0  0  0  0  0  0  0  0  0  0  0  0
  1  2  1  0  0  0
  2 19  1  0  0  0
 19 20  1  0  0  0
 20 21  2  0  0  0
 20 23  1  0  0  0
 23 24  1  0  0  0
 24 25  1  0  0  0
 25 26  2  0  0  0
 26 27  1  0  0  0
 27 28  2  0  0  0
 28 29  1  0  0  0
 29 30  1  0  0  0
 30 31  2  0  0  0
 31 32  1  0  0  0
 32 33  2  0  0  0
  2  3  1  0  0  0
  3  4  2  0  0  0
  4  5  1  0  0  0
  5  6  2  0  0  0
  6  7  1  0  0  0
  7  8  2  0  0  0
  8  9  1  0  0  0
  9 11  1  0  0  0
 11 12  2  0  0  0
 11 13  2  0  0  0
 11 14  1  0  0  0
 14 15  2  0  0  0
 15 16  1  0  0  0
 16 17  2  0  0  0
 17 18  1  0  0  0
 33 25  1  0  0  0
  8  3  1  0  0  0
 18 14  1  0  0  0
 32 28  1  0  0  0
 19 22  1  0  0  0
 29 34  1  0  0  0
  9 10  1  0  0  0
M  END
> <minimizedAffinity>
-9.84789

$$$$
OCNT-2315775


 23 25  0  0  0  0  0  0  0  0999 V2000
   -1.6018   27.6618    7.9279 N   0  0  0  0  0  0  0  0  0  0  0  0
   -2.5120   28.0634    7.7021 H   0  0  0  0  0  0  0  0  0  0  0  0
   -0.7195   28.6979    8.4840 C   0  0  0  0  0  0  0  0  0  0  0  0
   -1.5542   29.9303    8.8133 C   0  0  0  0  0  0  0  0  0  0  0  0
   -2.9550   29.8681    8.7383 C   0  0  0  0  0  0  0  0  0  0  0  0
   -3.7359   30.9872    9.0345 C   0  0  0  0  0  0  0  0  0  0  0  0
   -3.1280   32.1856    9.4011 C   0  0  0  0  0  0  0  0  0  0  0  0
   -1.7391   32.2690    9.4649 C   0  0  0  0  0  0  0  0  0  0  0  0
   -0.9560   31.1514    9.1690 C   0  0  0  0  0  0  0  0  0  0  0  0
    1.7328   28.9634    8.3248 O   0  0  0  0  0  0  0  0  0  0  0  0
    0.5035   29.0787    7.6030 C   0  0  0  0  0  0  0  0  0  0  0  0
    1.7168   29.6343    9.0290 H   0  0  0  0  0  0  0  0  0  0  0  0
   -1.0866   27.0462    6.7060 C   0  0  0  0  0  0  0  0  0  0  0  0
   -2.2379   26.8979    5.7626 C   0  0  0  0  0  0  0  0  0  0  0  0
   -3.4762   27.5082    5.8017 C   0  0  0  0  0  0  0  0  0  0  0  0
   -4.1458   27.0620    4.6939 N   0  0  0  0  0  0  0  0  0  0  0  0
   -5.4289   27.3676    4.2497 C   0  0  0  0  0  0  0  0  0  0  0  0
   -5.8819   26.7996    3.1181 C   0  0  0  0  0  0  0  0  0  0  0  0
   -5.0154   25.8780    2.3869 C   0  0  0  0  0  0  0  0  0  0  0  0
   -5.6993   25.1195    0.8234 Br  0  0  0  0  0  0  0  0  0  0  0  0
   -3.7734   25.5923    2.8296 C   0  0  0  0  0  0  0  0  0  0  0  0
   -3.2904   26.1926    4.0270 C   0  0  0  0  0  0  0  0  0  0  0  0
   -2.1375   26.0808    4.6519 N   0  0  0  0  0  0  0  0  0  0  0  0
 10 11  1  0  0  0
 11  3  1  0  0  0
  3  1  1  0  0  0
  1 13  1  0  0  0
 13 14  1  0  0  0
 14 15  2  0  0  0
 15 16  1  0  0  0
 16 17  1  0  0  0
 17 18  2  0  0  0
 18 19  1  0  0  0
 19 20  1  0  0  0
 19 21  2  0  0  0
 21 22  1  0  0  0
 22 23  2  0  0  0
  3  4  1  0  0  0
  4  5  2  0  0  0
  5  6  1  0  0  0
  6  7  2  0  0  0
  7  8  1  0  0  0
  8  9  2  0  0  0
 23 14  1  0  0  0
  9  4  1  0  0  0
 22 16  1  0  0  0
 10 12  1  0  0  0
  1  2  1  0  0  0
M  END
> <minimizedAffinity>
-8.67746

$$$$
OCNT-2315776


 21 23  0  0  0  0  0  0  0  0999 V2000
   -5.8837   27.4865    3.8133 C   0  0  0  0  0  0  0  0  0  0  0  0
   -4.5754   27.3174    4.5454 C   0  0  0  0  0  0  0  0  0  0  0  0
   -3.5737   26.5306    4.0952 C   0  0  0  0  0  0  0  0  0  0  0  0
   -2.3086   26.4719    4.8946 C   0  0  0  0  0  0  0  0  0  0  0  0
   -1.3597   25.7843    4.5222 O   0  0  0  0  0  0  0  0  0  0  0  0
   -2.3093   27.2354    6.0336 N   0  0  0  0  0  0  0  0  0  0  0  0
   -1.2573   27.3323    6.9191 C   0  0  0  0  0  0  0  0  0  0  0  0
   -1.4940   28.1453    7.9551 C   0  0  0  0  0  0  0  0  0  0  0  0
   -3.0873   28.8456    7.8651 S   0  0  0  0  0  0  0  0  0  0  0  0
   -3.4074   27.9869    6.3665 C   0  0  0  0  0  0  0  0  0  0  0  0
   -4.5052   28.0663    5.7008 N   0  0  0  0  0  0  0  0  0  0  0  0
   -3.6045   25.6570    2.8635 C   0  0  0  0  0  0  0  0  0  0  0  0
   -4.3128   24.3153    3.1371 C   0  0  0  0  0  0  0  0  0  0  0  0
   -4.4385   23.4662    1.9343 N   0  0  0  0  0  0  0  0  0  0  0  0
   -4.8591   24.2446    0.7426 C   0  0  0  0  0  0  0  0  0  0  0  0
   -6.3373   24.7079    0.7562 C   0  0  0  0  0  0  0  0  0  0  0  0
   -7.3223   23.6328    0.9874 N   0  0  0  0  0  0  0  0  0  0  0  0
   -7.5248   22.8268   -0.2156 C   0  0  0  0  0  0  0  0  0  0  0  0
   -6.8983   22.8003    2.1319 C   0  0  0  0  0  0  0  0  0  0  0  0
   -5.4078   22.3448    2.1017 C   0  0  0  0  0  0  0  0  0  0  0  0
   -5.1032   21.4401    3.3019 C   0  0  0  0  0  0  0  0  0  0  0  0
  1  2  1  0  0  0
  2  3  2  0  0  0
  3 12  1  0  0  0
 12 13  1  0  0  0
 13 14  1  0  0  0
 14 15  1  0  0  0
 15 16  1  0  0  0
 16 17  1  0  0  0
 17 18  1  0  0  0
 17 19  1  0  0  0
 19 20  1  0  0  0
 20 21  1  0  0  0
  3  4  1  0  0  0
  4  5  2  0  0  0
  4  6  1  0  0  0
  6  7  1  0  0  0
  7  8  2  0  0  0
  8  9  1  0  0  0
  9 10  1  0  0  0
 10 11  2  0  0  0
 11  2  1  0  0  0
 20 14  1  0  0  0
 10  6  1  0  0  0
M  END
> <minimizedAffinity>
-7.69862

$$$$
OCNT-2315778


 26 28  0  0  0  0  0  0  0  0999 V2000
   -2.4861   28.0740    6.1712 N   0  0  0  0  0  0  0  0  0  0  0  0
   -3.8566   27.9939    6.2370 C   0  0  0  0  0  0  0  0  0  0  0  0
   -4.5157   28.6494    7.0381 O   0  0  0  0  0  0  0  0  0  0  0  0
   -4.4240   27.1134    5.3217 N   0  0  0  0  0  0  0  0  0  0  0  0
   -5.8802   27.0091    5.3350 C   0  0  0  0  0  0  0  0  0  0  0  0
   -6.3445   25.6328    4.8682 C   0  0  0  0  0  0  0  0  0  0  0  0
   -5.7133   25.2502    3.5553 C   0  0  0  0  0  0  0  0  0  0  0  0
   -6.3225   24.2874    2.7373 C   0  0  0  0  0  0  0  0  0  0  0  0
   -5.7255   23.9130    1.5352 C   0  0  0  0  0  0  0  0  0  0  0  0
   -6.4837   22.7371    0.5336 Cl  0  0  0  0  0  0  0  0  0  0  0  0
   -4.5188   24.4830    1.1398 C   0  0  0  0  0  0  0  0  0  0  0  0
   -3.9001   25.4316    1.9562 C   0  0  0  0  0  0  0  0  0  0  0  0
   -4.4843   25.8175    3.1739 C   0  0  0  0  0  0  0  0  0  0  0  0
   -3.7854   26.8504    4.0312 C   0  0  0  0  0  0  0  0  0  0  0  0
   -2.0446   27.1911    5.9638 H   0  0  0  0  0  0  0  0  0  0  0  0
   -0.3090   28.4174    7.2578 C   0  0  0  0  0  0  0  0  0  0  0  0
   -1.7401   28.9374    7.0918 C   0  0  0  0  0  0  0  0  0  0  0  0
   -1.7715   30.3873    6.5693 C   0  0  0  0  0  0  0  0  0  0  0  0
   -2.5268   31.3501    7.4538 C   0  0  0  0  0  0  0  0  0  0  0  0
   -3.6618   32.0182    6.9733 C   0  0  0  0  0  0  0  0  0  0  0  0
   -4.3547   32.9113    7.7920 C   0  0  0  0  0  0  0  0  0  0  0  0
   -3.9171   33.1381    9.0906 C   0  0  0  0  0  0  0  0  0  0  0  0
   -4.6232   34.0195    9.8544 O   0  0  0  0  0  0  0  0  0  0  0  0
   -2.7954   32.4840    9.5883 C   0  0  0  0  0  0  0  0  0  0  0  0
   -2.1023   31.5896    8.7695 C   0  0  0  0  0  0  0  0  0  0  0  0
   -4.1962   34.0840   10.7242 H   0  0  0  0  0  0  0  0  0  0  0  0
 16 17  1  0  0  0
 17 18  1  0  0  0
 18 19  1  0  0  0
 19 20  1  0  0  0
 20 21  2  0  0  0
 21 22  1  0  0  0
 22 23  1  0  0  0
 22 24  2  0  0  0
 24 25  1  0  0  0
 17  1  1  0  0  0
  1  2  1  0  0  0
  2  3  2  0  0  0
  2  4  1  0  0  0
  4  5  1  0  0  0
  5  6  1  0  0  0
  6  7  1  0  0  0
  7  8  1  0  0  0
  8  9  2  0  0  0
  9 10  1  0  0  0
  9 11  1  0  0  0
 11 12  2  0  0  0
 12 13  1  0  0  0
 13 14  1  0  0  0
 25 19  2  0  0  0
 14  4  1  0  0  0
 13  7  2  0  0  0
 23 26  1  0  0  0
  1 15  1  0  0  0
M  END
> <minimizedAffinity>
-9.38399

$$$$
OCNT-2315779


 29 32  0  0  0  0  0  0  0  0999 V2000
   -6.0078   27.5218    6.0530 N   0  0  0  0  0  0  0  0  0  0  0  0
   -5.6119   27.2925    6.9692 H   0  0  0  0  0  0  0  0  0  0  0  0
   -5.9515   26.6017    5.0736 C   0  0  0  0  0  0  0  0  0  0  0  0
   -6.0270   25.2954    5.1576 N   0  0  0  0  0  0  0  0  0  0  0  0
   -5.9091   24.8350    3.8703 C   0  0  0  0  0  0  0  0  0  0  0  0
   -5.9230   23.5183    3.3924 C   0  0  0  0  0  0  0  0  0  0  0  0
   -5.7786   23.3246    2.0091 C   0  0  0  0  0  0  0  0  0  0  0  0
   -5.6239   24.4059    1.1251 C   0  0  0  0  0  0  0  0  0  0  0  0
   -5.6105   25.7229    1.5991 C   0  0  0  0  0  0  0  0  0  0  0  0
   -5.7573   25.8900    2.9770 C   0  0  0  0  0  0  0  0  0  0  0  0
   -5.7873   27.0047    3.7758 N   0  0  0  0  0  0  0  0  0  0  0  0
   -5.6816   27.9620    3.4806 H   0  0  0  0  0  0  0  0  0  0  0  0
   -5.7880   21.9564    1.4771 N   0  0  0  0  0  0  0  0  0  0  0  0
   -5.5456   21.0283    2.2618 O   0  0  0  0  0  0  0  0  0  0  0  0
   -6.0399   21.8087    0.2723 O   0  0  0  0  0  0  0  0  0  0  0  0
   -5.6902   28.8979    5.7011 C   0  0  0  0  0  0  0  0  0  0  0  0
   -4.1340   30.0456    7.3931 C   0  0  0  0  0  0  0  0  0  0  0  0
   -3.9314   30.8160    8.4892 N   0  0  0  0  0  0  0  0  0  0  0  0
   -5.0094   31.2962    9.1442 C   0  0  0  0  0  0  0  0  0  0  0  0
   -6.3120   31.0531    8.7614 C   0  0  0  0  0  0  0  0  0  0  0  0
   -6.5204   30.2653    7.6382 C   0  0  0  0  0  0  0  0  0  0  0  0
   -5.4271   29.7367    6.9324 C   0  0  0  0  0  0  0  0  0  0  0  0
    0.7114   29.3301    8.6187 C   0  0  0  0  0  0  0  0  0  0  0  0
   -0.1874   28.8405    7.5765 N   0  0  0  0  0  0  0  0  0  0  0  0
   -0.5214   29.8977    6.5964 C   0  0  0  0  0  0  0  0  0  0  0  0
   -1.9079   30.5518    6.7925 C   0  0  0  0  0  0  0  0  0  0  0  0
   -2.9999   29.5433    6.6991 N   0  0  0  0  0  0  0  0  0  0  0  0
   -2.5941   28.1993    7.1939 C   0  0  0  0  0  0  0  0  0  0  0  0
   -1.4128   28.2670    8.1843 C   0  0  0  0  0  0  0  0  0  0  0  0
 23 24  1  0  0  0
 24 25  1  0  0  0
 25 26  1  0  0  0
 26 27  1  0  0  0
 27 17  1  0  0  0
 17 18  1  0  0  0
 18 19  2  0  0  0
 19 20  1  0  0  0
 20 21  2  0  0  0
 21 22  1  0  0  0
 22 16  1  0  0  0
 16  1  1  0  0  0
  1  3  1  0  0  0
  3  4  2  0  0  0
  4  5  1  0  0  0
  5  6  2  0  0  0
  6  7  1  0  0  0
  7 13  1  0  0  0
 13 14  2  0  0  0
 13 15  1  0  0  0
  7  8  2  0  0  0
  8  9  1  0  0  0
  9 10  2  0  0  0
 10 11  1  0  0  0
 27 28  1  0  0  0
 28 29  1  0  0  0
 29 24  1  0  0  0
 22 17  2  0  0  0
 11  3  1  0  0  0
 10  5  1  0  0  0
  1  2  1  0  0  0
 11 12  1  0  0  0
M  CHG 1  13   1
M  CHG 1  15  -1
M  END
> <minimizedAffinity>
-9.17680

$$$$
OCNT-2315781


 29 31  0  0  0  0  0  0  0  0999 V2000
   -5.7323   25.9202    3.9514 C   0  0  0  0  0  0  0  0  0  0  0  0
   -4.2279   25.6112    3.9184 C   0  0  0  0  0  0  0  0  0  0  0  0
   -3.3657   26.7221    4.5222 C   0  0  0  0  0  0  0  0  0  0  0  0
   -4.0849   27.4597    5.6445 C   0  0  0  0  0  0  0  0  0  0  0  0
   -5.3286   28.0843    5.1813 N   0  0  0  0  0  0  0  0  0  0  0  0
   -5.8855   29.2843    5.6286 C   0  0  0  0  0  0  0  0  0  0  0  0
   -6.8639   29.7539    5.0358 O   0  0  0  0  0  0  0  0  0  0  0  0
   -5.9911   27.4374    4.0281 C   0  0  0  0  0  0  0  0  0  0  0  0
   -5.2950   30.0427    6.8504 C   0  0  0  0  0  0  0  0  0  0  0  0
   -4.9484   29.0228    7.9763 C   0  0  0  0  0  0  0  0  0  0  0  0
   -6.1666   29.0208    8.8765 C   0  0  0  0  0  0  0  0  0  0  0  0
   -6.5103   30.4384    8.9038 N   0  0  0  0  0  0  0  0  0  0  0  0
   -6.4158   30.8763    7.5070 C   0  0  0  0  0  0  0  0  0  0  0  0
   -7.4519   30.5737    9.2680 H   0  0  0  0  0  0  0  0  0  0  0  0
   -3.9954   30.7701    6.4108 C   0  0  0  0  0  0  0  0  0  0  0  0
   -2.8701   30.9080    7.4136 C   0  0  0  0  0  0  0  0  0  0  0  0
   -2.9411   31.8672    8.4358 C   0  0  0  0  0  0  0  0  0  0  0  0
   -1.9015   32.0082    9.3580 C   0  0  0  0  0  0  0  0  0  0  0  0
   -0.7713   31.1984    9.2653 C   0  0  0  0  0  0  0  0  0  0  0  0
   -0.6848   30.2548    8.2451 C   0  0  0  0  0  0  0  0  0  0  0  0
    0.8536   29.1634    8.1069 Br  0  0  0  0  0  0  0  0  0  0  0  0
   -1.7203   30.1106    7.3204 C   0  0  0  0  0  0  0  0  0  0  0  0
   -6.9989   24.0136    4.8835 C   0  0  0  0  0  0  0  0  0  0  0  0
   -6.8989   23.3666    3.8450 O   0  0  0  0  0  0  0  0  0  0  0  0
   -6.3747   25.2291    5.0727 N   0  0  0  0  0  0  0  0  0  0  0  0
   -6.6886   25.7898    5.8511 H   0  0  0  0  0  0  0  0  0  0  0  0
   -7.2348   22.2713    6.6783 C   0  0  0  0  0  0  0  0  0  0  0  0
   -7.8424   23.5254    6.0552 C   0  0  0  0  0  0  0  0  0  0  0  0
   -9.2937   23.2993    5.6440 C   0  0  0  0  0  0  0  0  0  0  0  0
 27 28  1  0  0  0
 28 29  1  0  0  0
 28 23  1  0  0  0
 23 24  2  0  0  0
 23 25  1  0  0  0
 25  1  1  0  0  0
  1  2  1  0  0  0
  2  3  1  0  0  0
  3  4  1  0  0  0
  4  5  1  0  0  0
  5  6  1  0  0  0
  6  7  2  0  0  0
  6  9  1  0  0  0
  9 15  1  0  0  0
 15 16  1  0  0  0
 16 17  2  0  0  0
 17 18  1  0  0  0
 18 19  2  0  0  0
 19 20  1  0  0  0
 20 21  1  0  0  0
 20 22  2  0  0  0
  9 10  1  0  0  0
 10 11  1  0  0  0
 11 12  1  0  0  0
 12 13  1  0  0  0
  5  8  1  0  0  0
  8  1  1  0  0  0
 13  9  1  0  0  0
 22 16  1  0  0  0
 25 26  1  0  0  0
 12 14  1  0  0  0
M  END
> <minimizedAffinity>
-9.08473

$$$$
OCNT-2315799


 26 29  0  0  0  0  0  0  0  0999 V2000
   -4.5588   26.1714    5.6141 N   0  0  0  0  0  0  0  0  0  0  0  0
   -5.5726   26.1229    4.6819 C   0  0  0  0  0  0  0  0  0  0  0  0
   -5.6543   26.8971    3.7363 O   0  0  0  0  0  0  0  0  0  0  0  0
   -4.4330   25.3735    6.2266 H   0  0  0  0  0  0  0  0  0  0  0  0
   -3.1290   27.7860    6.8447 C   0  0  0  0  0  0  0  0  0  0  0  0
   -2.0439   27.1618    7.5457 O   0  0  0  0  0  0  0  0  0  0  0  0
   -0.7956   27.1279    6.8514 C   0  0  0  0  0  0  0  0  0  0  0  0
   -0.9159   27.0038    5.3357 C   0  0  0  0  0  0  0  0  0  0  0  0
   -2.2143   26.3243    4.9463 C   0  0  0  0  0  0  0  0  0  0  0  0
   -3.4230   27.0992    5.4881 C   0  0  0  0  0  0  0  0  0  0  0  0
   -5.3495   29.8383    6.3168 C   0  0  0  0  0  0  0  0  0  0  0  0
   -3.9545   30.1634    6.4952 N   0  0  0  0  0  0  0  0  0  0  0  0
   -3.4295   31.4243    6.4368 C   0  0  0  0  0  0  0  0  0  0  0  0
   -2.0799   31.2590    6.6163 C   0  0  0  0  0  0  0  0  0  0  0  0
   -1.7740   29.9342    6.7717 N   0  0  0  0  0  0  0  0  0  0  0  0
   -2.9207   29.2772    6.7249 C   0  0  0  0  0  0  0  0  0  0  0  0
   -6.5555   24.9933    4.9352 C   0  0  0  0  0  0  0  0  0  0  0  0
   -6.1465   23.6639    4.2904 C   0  0  0  0  0  0  0  0  0  0  0  0
   -6.9111   23.3062    2.9986 C   0  0  0  0  0  0  0  0  0  0  0  0
   -6.8663   21.8481    2.4588 C   0  0  0  0  0  0  0  0  0  0  0  0
   -5.9057   22.3177    1.3555 C   0  0  0  0  0  0  0  0  0  0  0  0
   -6.3988   23.7549    1.5976 C   0  0  0  0  0  0  0  0  0  0  0  0
   -6.5081   22.5021    5.2282 C   0  0  0  0  0  0  0  0  0  0  0  0
   -5.6774   22.3253    6.5372 C   0  0  0  0  0  0  0  0  0  0  0  0
   -6.9884   21.9198    7.2352 C   0  0  0  0  0  0  0  0  0  0  0  0
   -7.7278   22.7479    6.1682 C   0  0  0  0  0  0  0  0  0  0  0  0
 11 12  1  0  0  0
 12 13  1  0  0  0
 13 14  2  0  0  0
 14 15  1  0  0  0
 15 16  2  0  0  0
 16  5  1  0  0  0
  5  6  1  0  0  0
  6  7  1  0  0  0
  7  8  1  0  0  0
  8  9  1  0  0  0
  9 10  1  0  0  0
 10  1  1  0  0  0
  1  2  1  0  0  0
  2  3  2  0  0  0
  2 17  1  0  0  0
 17 18  1  0  0  0
 18 19  1  0  0  0
 19 20  1  0  0  0
 20 21  1  0  0  0
 21 22  1  0  0  0
 18 23  1  0  0  0
 23 24  1  0  0  0
 24 25  1  0  0  0
 25 26  1  0  0  0
 16 12  1  0  0  0
 10  5  1  0  0  0
 22 19  1  0  0  0
 26 23  1  0  0  0
  1  4  1  0  0  0
M  END
> <minimizedAffinity>
-8.35683

$$$$
OCNT-2315805


 25 27  0  0  0  0  0  0  0  0999 V2000
   -5.2097   27.8873    4.2724 N   0  0  0  0  0  0  0  0  0  0  0  0
   -6.1615   28.9589    3.9719 C   0  0  0  0  0  0  0  0  0  0  0  0
   -6.5398   29.5276    5.3395 C   0  0  0  0  0  0  0  0  0  0  0  0
   -5.2915   29.2630    6.1770 C   0  0  0  0  0  0  0  0  0  0  0  0
   -4.8538   27.8782    5.6939 C   0  0  0  0  0  0  0  0  0  0  0  0
   -5.3486   25.3811    1.5607 C   0  0  0  0  0  0  0  0  0  0  0  0
   -5.7465   26.3918    2.4369 C   0  0  0  0  0  0  0  0  0  0  0  0
   -4.8500   26.9032    3.3807 C   0  0  0  0  0  0  0  0  0  0  0  0
   -3.5680   26.3448    3.3741 C   0  0  0  0  0  0  0  0  0  0  0  0
   -3.2420   25.3517    2.4598 C   0  0  0  0  0  0  0  0  0  0  0  0
   -4.0988   24.8563    1.5493 N   0  0  0  0  0  0  0  0  0  0  0  0
   -7.0637   22.9512    1.9817 C   0  0  0  0  0  0  0  0  0  0  0  0
   -7.0495   23.7062    0.7388 N   0  0  0  0  0  0  0  0  0  0  0  0
   -7.7950   23.1369   -0.3695 C   0  0  0  0  0  0  0  0  0  0  0  0
   -6.3361   24.8945    0.5363 C   0  0  0  0  0  0  0  0  0  0  0  0
   -6.4921   25.5792   -0.4784 O   0  0  0  0  0  0  0  0  0  0  0  0
   -5.4677   29.3924    7.6883 C   0  0  0  0  0  0  0  0  0  0  0  0
   -4.3560   28.8029    8.4304 N   0  0  0  0  0  0  0  0  0  0  0  0
   -3.8452   28.1139    7.8761 H   0  0  0  0  0  0  0  0  0  0  0  0
   -3.3520   29.7159    8.7642 C   0  0  0  0  0  0  0  0  0  0  0  0
   -3.6132   30.8894    9.4628 C   0  0  0  0  0  0  0  0  0  0  0  0
   -2.5578   31.7451    9.7702 C   0  0  0  0  0  0  0  0  0  0  0  0
   -1.2718   31.4014    9.3782 C   0  0  0  0  0  0  0  0  0  0  0  0
   -1.0997   30.2093    8.6977 C   0  0  0  0  0  0  0  0  0  0  0  0
   -2.1090   29.3652    8.3869 N   0  0  0  0  0  0  0  0  0  0  0  0
 12 13  1  0  0  0
 13 14  1  0  0  0
 13 15  1  0  0  0
 15 16  2  0  0  0
 15  6  1  0  0  0
  6  7  2  0  0  0
  7  8  1  0  0  0
  8  1  1  0  0  0
  1  2  1  0  0  0
  2  3  1  0  0  0
  3  4  1  0  0  0
  4 17  1  0  0  0
 17 18  1  0  0  0
 18 20  1  0  0  0
 20 21  2  0  0  0
 21 22  1  0  0  0
 22 23  2  0  0  0
 23 24  1  0  0  0
 24 25  2  0  0  0
  4  5  1  0  0  0
  8  9  2  0  0  0
  9 10  1  0  0  0
 10 11  2  0  0  0
 11  6  1  0  0  0
  5  1  1  0  0  0
 25 20  1  0  0  0
 18 19  1  0  0  0
M  END
> <minimizedAffinity>
-8.81155

$$$$
OCNT-2315811


 25 28  0  0  0  0  0  0  0  0999 V2000
   -4.2632   25.8088    4.7042 C   0  0  0  0  0  0  0  0  0  0  0  0
   -5.4868   29.3398    5.5533 C   0  0  0  0  0  0  0  0  0  0  0  0
   -6.0707   29.6963    4.3277 C   0  0  0  0  0  0  0  0  0  0  0  0
   -6.0695   28.8188    3.2382 C   0  0  0  0  0  0  0  0  0  0  0  0
   -5.4835   27.5626    3.3519 C   0  0  0  0  0  0  0  0  0  0  0  0
   -4.8901   27.1759    4.5569 C   0  0  0  0  0  0  0  0  0  0  0  0
   -4.9005   28.0704    5.6444 C   0  0  0  0  0  0  0  0  0  0  0  0
   -3.4015   31.3434    6.4816 O   0  0  0  0  0  0  0  0  0  0  0  0
   -4.4915   31.1548    7.0000 C   0  0  0  0  0  0  0  0  0  0  0  0
   -4.9997   31.9880    8.1534 C   0  0  0  0  0  0  0  0  0  0  0  0
   -6.1285   31.1489    8.7154 C   0  0  0  0  0  0  0  0  0  0  0  0
   -6.6600   30.4201    7.4994 C   0  0  0  0  0  0  0  0  0  0  0  0
   -5.5012   30.2405    6.6552 N   0  0  0  0  0  0  0  0  0  0  0  0
   -4.3052   25.0077    3.4770 N   0  0  0  0  0  0  0  0  0  0  0  0
   -4.7474   25.5695    2.7499 H   0  0  0  0  0  0  0  0  0  0  0  0
   -5.0148   23.7232    3.5975 C   0  0  0  0  0  0  0  0  0  0  0  0
   -6.4360   24.0050    4.1175 C   0  0  0  0  0  0  0  0  0  0  0  0
   -7.4014   22.9379    3.6336 C   0  0  0  0  0  0  0  0  0  0  0  0
   -7.5354   22.9435    2.2143 O   0  0  0  0  0  0  0  0  0  0  0  0
   -6.3243   23.1559    1.4697 C   0  0  0  0  0  0  0  0  0  0  0  0
   -6.3799   22.2428    0.2370 C   0  0  0  0  0  0  0  0  0  0  0  0
   -7.3775   22.9173   -0.7014 C   0  0  0  0  0  0  0  0  0  0  0  0
   -7.3618   24.3998   -0.3357 C   0  0  0  0  0  0  0  0  0  0  0  0
   -6.3690   24.5437    0.8177 C   0  0  0  0  0  0  0  0  0  0  0  0
   -5.0640   22.8979    2.2994 C   0  0  0  0  0  0  0  0  0  0  0  0
  8  9  2  0  0  0
  9 10  1  0  0  0
 10 11  1  0  0  0
 11 12  1  0  0  0
 12 13  1  0  0  0
 13  2  1  0  0  0
  2  3  1  0  0  0
  3  4  2  0  0  0
  4  5  1  0  0  0
  5  6  2  0  0  0
  6  1  1  0  0  0
  1 14  1  0  0  0
 14 16  1  0  0  0
 16 17  1  0  0  0
 17 18  1  0  0  0
 18 19  1  0  0  0
 19 20  1  0  0  0
 20 21  1  0  0  0
 21 22  1  0  0  0
 22 23  1  0  0  0
 23 24  1  0  0  0
 20 25  1  0  0  0
  6  7  1  0  0  0
 13  9  1  0  0  0
  7  2  2  0  0  0
 25 16  1  0  0  0
 24 20  1  0  0  0
 14 15  1  0  0  0
M  END
> <minimizedAffinity>
-9.78178

$$$$
OCNT-2315827


 27 29  0  0  0  0  0  0  0  0999 V2000
   -6.0066   25.0995    2.7694 C   0  0  0  0  0  0  0  0  0  0  0  0
   -5.5117   26.3801    2.5713 C   0  0  0  0  0  0  0  0  0  0  0  0
   -5.3837   27.2415    3.6609 C   0  0  0  0  0  0  0  0  0  0  0  0
   -5.7540   26.8124    4.9268 C   0  0  0  0  0  0  0  0  0  0  0  0
   -6.2611   25.5743    5.0840 N   0  0  0  0  0  0  0  0  0  0  0  0
   -6.3833   24.7129    4.0090 N   0  0  0  0  0  0  0  0  0  0  0  0
   -5.5484   22.8665    1.6411 C   0  0  0  0  0  0  0  0  0  0  0  0
   -5.7773   21.9927    0.5670 C   0  0  0  0  0  0  0  0  0  0  0  0
   -6.6686   22.3326   -0.4520 C   0  0  0  0  0  0  0  0  0  0  0  0
   -7.3411   23.5465   -0.4097 C   0  0  0  0  0  0  0  0  0  0  0  0
   -7.1134   24.4258    0.6488 C   0  0  0  0  0  0  0  0  0  0  0  0
   -6.2094   24.1168    1.6883 C   0  0  0  0  0  0  0  0  0  0  0  0
   -4.9506   21.3908    3.4264 C   0  0  0  0  0  0  0  0  0  0  0  0
   -4.7004   22.5766    2.6827 O   0  0  0  0  0  0  0  0  0  0  0  0
   -5.6317   27.7174    6.0012 N   0  0  0  0  0  0  0  0  0  0  0  0
   -6.4273   27.5948    6.6218 H   0  0  0  0  0  0  0  0  0  0  0  0
   -5.4645   29.1093    5.5845 C   0  0  0  0  0  0  0  0  0  0  0  0
   -4.3745   29.7658    6.4351 C   0  0  0  0  0  0  0  0  0  0  0  0
   -4.0641   28.9094    7.6696 C   0  0  0  0  0  0  0  0  0  0  0  0
   -2.6326   28.5530    7.7661 N   0  0  0  0  0  0  0  0  0  0  0  0
   -1.8001   29.7404    8.0345 C   0  0  0  0  0  0  0  0  0  0  0  0
   -0.4134   29.3620    8.5512 C   0  0  0  0  0  0  0  0  0  0  0  0
    0.6155   29.0771    7.4647 C   0  0  0  0  0  0  0  0  0  0  0  0
    0.1081   28.5048    6.2691 O   0  0  0  0  0  0  0  0  0  0  0  0
   -0.7529   27.3831    6.4771 C   0  0  0  0  0  0  0  0  0  0  0  0
   -0.5440   26.4567    5.2811 C   0  0  0  0  0  0  0  0  0  0  0  0
   -2.2213   27.8592    6.5220 C   0  0  0  0  0  0  0  0  0  0  0  0
 13 14  1  0  0  0
 14  7  1  0  0  0
  7  8  2  0  0  0
  8  9  1  0  0  0
  9 10  2  0  0  0
 10 11  1  0  0  0
 11 12  2  0  0  0
 12  1  1  0  0  0
  1  2  2  0  0  0
  2  3  1  0  0  0
  3  4  2  0  0  0
  4 15  1  0  0  0
 15 17  1  0  0  0
 17 18  1  0  0  0
 18 19  1  0  0  0
 19 20  1  0  0  0
 20 21  1  0  0  0
 21 22  1  0  0  0
 22 23  1  0  0  0
 23 24  1  0  0  0
 24 25  1  0  0  0
 25 26  1  0  0  0
 25 27  1  0  0  0
  4  5  1  0  0  0
  5  6  2  0  0  0
 12  7  1  0  0  0
  6  1  1  0  0  0
 27 20  1  0  0  0
 15 16  1  0  0  0
M  END
> <minimizedAffinity>
-8.83774

$$$$
OCNT-2315832


 25 28  0  0  0  0  0  0  0  0999 V2000
   -6.1699   27.8360    4.7871 C   0  0  0  0  0  0  0  0  0  0  0  0
   -5.7803   26.5151    4.7220 C   0  0  0  0  0  0  0  0  0  0  0  0
   -5.5027   26.3145    3.4031 N   0  0  0  0  0  0  0  0  0  0  0  0
   -5.6839   27.4416    2.6926 N   0  0  0  0  0  0  0  0  0  0  0  0
   -6.1095   28.3787    3.5297 N   0  0  0  0  0  0  0  0  0  0  0  0
   -6.6048   28.6491    5.9585 C   0  0  0  0  0  0  0  0  0  0  0  0
   -5.0392   31.3123    8.0409 C   0  0  0  0  0  0  0  0  0  0  0  0
   -4.4639   30.8031    6.7189 C   0  0  0  0  0  0  0  0  0  0  0  0
   -4.3541   29.2769    6.7153 C   0  0  0  0  0  0  0  0  0  0  0  0
   -5.6061   28.5756    7.0434 N   0  0  0  0  0  0  0  0  0  0  0  0
   -6.1532   29.0683    8.3147 C   0  0  0  0  0  0  0  0  0  0  0  0
   -6.3414   30.5817    8.3641 C   0  0  0  0  0  0  0  0  0  0  0  0
   -4.5512   33.4996    8.8669 C   0  0  0  0  0  0  0  0  0  0  0  0
   -5.3417   32.7103    7.9893 O   0  0  0  0  0  0  0  0  0  0  0  0
   -5.0006   25.1062    2.7747 C   0  0  0  0  0  0  0  0  0  0  0  0
   -5.9311   24.6114    1.6968 C   0  0  0  0  0  0  0  0  0  0  0  0
   -6.0202   25.2876    0.4687 C   0  0  0  0  0  0  0  0  0  0  0  0
   -6.8693   24.8250   -0.5394 C   0  0  0  0  0  0  0  0  0  0  0  0
   -7.6421   23.6843   -0.3351 C   0  0  0  0  0  0  0  0  0  0  0  0
   -7.5643   23.0010    0.8762 C   0  0  0  0  0  0  0  0  0  0  0  0
   -6.7043   23.4576    1.8766 C   0  0  0  0  0  0  0  0  0  0  0  0
   -6.6607   22.7966    3.0772 O   0  0  0  0  0  0  0  0  0  0  0  0
   -7.9714   22.3519    3.4930 C   0  0  0  0  0  0  0  0  0  0  0  0
   -8.0717   20.8737    3.7505 C   0  0  0  0  0  0  0  0  0  0  0  0
   -8.0803   21.8362    4.9021 C   0  0  0  0  0  0  0  0  0  0  0  0
 13 14  1  0  0  0
 14  7  1  0  0  0
  7  8  1  0  0  0
  8  9  1  0  0  0
  9 10  1  0  0  0
 10  6  1  0  0  0
  6  1  1  0  0  0
  1  2  2  0  0  0
  2  3  1  0  0  0
  3 15  1  0  0  0
 15 16  1  0  0  0
 16 17  2  0  0  0
 17 18  1  0  0  0
 18 19  2  0  0  0
 19 20  1  0  0  0
 20 21  2  0  0  0
 21 22  1  0  0  0
 22 23  1  0  0  0
 23 24  1  0  0  0
 24 25  1  0  0  0
  3  4  1  0  0  0
  4  5  2  0  0  0
 10 11  1  0  0  0
 11 12  1  0  0  0
 12  7  1  0  0  0
  5  1  1  0  0  0
 21 16  1  0  0  0
 25 23  1  0  0  0
M  END
> <minimizedAffinity>
-8.34244

$$$$
OCNT-2315840


 23 25  0  0  0  0  0  0  0  0999 V2000
   -1.0511   28.3394    7.3347 C   0  0  0  0  0  0  0  0  0  0  0  0
   -1.6322   29.5891    7.8466 N   0  0  0  0  0  0  0  0  0  0  0  0
   -0.8340   30.2178    8.9002 C   0  0  0  0  0  0  0  0  0  0  0  0
   -1.5346   31.4497    9.4926 C   0  0  0  0  0  0  0  0  0  0  0  0
   -2.1210   32.3935    8.4226 C   0  0  0  0  0  0  0  0  0  0  0  0
   -3.6615   32.4102    8.4567 C   0  0  0  0  0  0  0  0  0  0  0  0
   -4.2888   31.0647    8.0704 C   0  0  0  0  0  0  0  0  0  0  0  0
   -3.6815   30.4709    6.7931 C   0  0  0  0  0  0  0  0  0  0  0  0
   -4.1860   31.2058    5.6711 O   0  0  0  0  0  0  0  0  0  0  0  0
   -2.1267   30.5073    6.8017 C   0  0  0  0  0  0  0  0  0  0  0  0
   -1.6616   31.9562    7.0320 C   0  0  0  0  0  0  0  0  0  0  0  0
   -3.9322   30.7152    4.8711 H   0  0  0  0  0  0  0  0  0  0  0  0
   -1.9854   27.1231    7.2804 C   0  0  0  0  0  0  0  0  0  0  0  0
   -1.4510   26.3688    5.0520 O   0  0  0  0  0  0  0  0  0  0  0  0
   -2.3159   26.6552    5.8704 C   0  0  0  0  0  0  0  0  0  0  0  0
   -3.6877   26.5773    5.6759 N   0  0  0  0  0  0  0  0  0  0  0  0
   -4.2741   26.8322    6.4600 H   0  0  0  0  0  0  0  0  0  0  0  0
   -4.3708   26.1854    4.5055 C   0  0  0  0  0  0  0  0  0  0  0  0
   -5.0834   27.1787    3.8196 C   0  0  0  0  0  0  0  0  0  0  0  0
   -5.7865   26.8756    2.6504 C   0  0  0  0  0  0  0  0  0  0  0  0
   -5.7839   25.5750    2.1549 C   0  0  0  0  0  0  0  0  0  0  0  0
   -5.0788   24.5812    2.8289 C   0  0  0  0  0  0  0  0  0  0  0  0
   -4.3748   24.8848    3.9992 C   0  0  0  0  0  0  0  0  0  0  0  0
 14 15  2  0  0  0
 15 13  1  0  0  0
 13  1  1  0  0  0
  1  2  1  0  0  0
  2  3  1  0  0  0
  3  4  1  0  0  0
  4  5  1  0  0  0
  5  6  1  0  0  0
  6  7  1  0  0  0
  7  8  1  0  0  0
  8  9  1  0  0  0
  8 10  1  0  0  0
 10 11  1  0  0  0
 15 16  1  0  0  0
 16 18  1  0  0  0
 18 19  2  0  0  0
 19 20  1  0  0  0
 20 21  2  0  0  0
 21 22  1  0  0  0
 22 23  2  0  0  0
 10  2  1  0  0  0
 23 18  1  0  0  0
 11  5  1  0  0  0
  9 12  1  0  0  0
 16 17  1  0  0  0
M  END
> <minimizedAffinity>
-8.60223

$$$$
OCNT-2315844


 27 30  0  0  0  0  0  0  0  0999 V2000
   -6.1802   29.6675    3.7564 O   0  0  0  0  0  0  0  0  0  0  0  0
   -5.4626   28.8099    4.2681 C   0  0  0  0  0  0  0  0  0  0  0  0
   -4.8216   29.0345    5.4760 N   0  0  0  0  0  0  0  0  0  0  0  0
   -4.1554   28.3385    5.7943 H   0  0  0  0  0  0  0  0  0  0  0  0
   -5.1736   27.5176    3.6747 C   0  0  0  0  0  0  0  0  0  0  0  0
   -4.1761   26.7084    3.9707 N   0  0  0  0  0  0  0  0  0  0  0  0
   -4.3464   25.5805    3.1913 N   0  0  0  0  0  0  0  0  0  0  0  0
   -5.4406   25.7716    2.4816 C   0  0  0  0  0  0  0  0  0  0  0  0
   -6.0230   26.9895    2.7295 O   0  0  0  0  0  0  0  0  0  0  0  0
   -6.0992   24.8952    1.5229 C   0  0  0  0  0  0  0  0  0  0  0  0
   -6.5394   23.6261    1.9329 C   0  0  0  0  0  0  0  0  0  0  0  0
   -7.1854   22.7690    1.0378 C   0  0  0  0  0  0  0  0  0  0  0  0
   -7.4017   23.1711   -0.2797 C   0  0  0  0  0  0  0  0  0  0  0  0
   -6.9700   24.4265   -0.7034 C   0  0  0  0  0  0  0  0  0  0  0  0
   -6.3228   25.2841    0.1921 C   0  0  0  0  0  0  0  0  0  0  0  0
   -4.7735   30.3436    6.1091 C   0  0  0  0  0  0  0  0  0  0  0  0
   -4.8157   30.3094    7.6628 C   0  0  0  0  0  0  0  0  0  0  0  0
   -5.8857   31.2424    8.2450 C   0  0  0  0  0  0  0  0  0  0  0  0
   -6.2182   30.5742    9.5572 C   0  0  0  0  0  0  0  0  0  0  0  0
   -6.1673   29.1109    9.1782 C   0  0  0  0  0  0  0  0  0  0  0  0
   -5.2708   28.9854    8.0627 O   0  0  0  0  0  0  0  0  0  0  0  0
   -3.3921   30.5023    8.2143 C   0  0  0  0  0  0  0  0  0  0  0  0
   -2.9269   31.7459    8.6775 C   0  0  0  0  0  0  0  0  0  0  0  0
   -1.6075   31.9054    9.1122 C   0  0  0  0  0  0  0  0  0  0  0  0
   -0.7268   30.8289    9.0879 C   0  0  0  0  0  0  0  0  0  0  0  0
   -1.1625   29.5906    8.6243 C   0  0  0  0  0  0  0  0  0  0  0  0
   -2.4801   29.4302    8.1899 C   0  0  0  0  0  0  0  0  0  0  0  0
  1  2  2  0  0  0
  2  3  1  0  0  0
  3 16  1  0  0  0
 16 17  1  0  0  0
 17 22  1  0  0  0
 22 23  2  0  0  0
 23 24  1  0  0  0
 24 25  2  0  0  0
 25 26  1  0  0  0
 26 27  2  0  0  0
 17 18  1  0  0  0
 18 19  1  0  0  0
 19 20  1  0  0  0
 20 21  1  0  0  0
  2  5  1  0  0  0
  5  6  2  0  0  0
  6  7  1  0  0  0
  7  8  2  0  0  0
  8 10  1  0  0  0
 10 11  2  0  0  0
 11 12  1  0  0  0
 12 13  2  0  0  0
 13 14  1  0  0  0
 14 15  2  0  0  0
  8  9  1  0  0  0
 21 17  1  0  0  0
  9  5  1  0  0  0
 27 22  1  0  0  0
 15 10  1  0  0  0
  3  4  1  0  0  0
M  END
> <minimizedAffinity>
-10.27375

$$$$
OCNT-2315845


 29 31  0  0  0  0  0  0  0  0999 V2000
   -3.5893   29.3311    6.3307 N   0  0  0  0  0  0  0  0  0  0  0  0
   -4.7530   29.0441    5.6672 C   0  0  0  0  0  0  0  0  0  0  0  0
   -5.6699   29.8570    5.5831 O   0  0  0  0  0  0  0  0  0  0  0  0
   -4.8028   27.7842    5.0980 N   0  0  0  0  0  0  0  0  0  0  0  0
   -3.8247   26.7201    5.3353 C   0  0  0  0  0  0  0  0  0  0  0  0
   -4.4306   25.3299    5.1670 C   0  0  0  0  0  0  0  0  0  0  0  0
   -5.0656   25.1205    3.7785 C   0  0  0  0  0  0  0  0  0  0  0  0
   -5.6010   26.4412    3.1925 C   0  0  0  0  0  0  0  0  0  0  0  0
   -5.9641   27.4479    4.2787 C   0  0  0  0  0  0  0  0  0  0  0  0
   -2.7669   28.8549    5.9913 H   0  0  0  0  0  0  0  0  0  0  0  0
   -3.3669   30.6509    6.8983 C   0  0  0  0  0  0  0  0  0  0  0  0
   -1.9561   31.1937    6.6358 C   0  0  0  0  0  0  0  0  0  0  0  0
    0.5163   29.1250    6.0322 C   0  0  0  0  0  0  0  0  0  0  0  0
    0.1244   29.7469    7.3195 C   0  0  0  0  0  0  0  0  0  0  0  0
    0.8049   29.4523    8.4326 N   0  0  0  0  0  0  0  0  0  0  0  0
    0.2142   30.1831    9.4428 O   0  0  0  0  0  0  0  0  0  0  0  0
   -0.8233   30.8989    8.9401 C   0  0  0  0  0  0  0  0  0  0  0  0
   -1.5568   31.7319    9.9103 C   0  0  0  0  0  0  0  0  0  0  0  0
   -0.9418   30.6512    7.5884 C   0  0  0  0  0  0  0  0  0  0  0  0
   -4.0790   24.4298    2.8163 C   0  0  0  0  0  0  0  0  0  0  0  0
   -4.3402   24.7710    1.3442 C   0  0  0  0  0  0  0  0  0  0  0  0
   -5.5486   24.0449    0.8101 C   0  0  0  0  0  0  0  0  0  0  0  0
   -5.7141   22.6698    1.0302 C   0  0  0  0  0  0  0  0  0  0  0  0
   -6.8344   22.0103    0.5195 C   0  0  0  0  0  0  0  0  0  0  0  0
   -7.7798   22.7205   -0.2132 C   0  0  0  0  0  0  0  0  0  0  0  0
   -8.8506   22.0790   -0.7001 F   0  0  0  0  0  0  0  0  0  0  0  0
   -7.6269   24.0771   -0.4543 C   0  0  0  0  0  0  0  0  0  0  0  0
   -6.5105   24.7271    0.0587 C   0  0  0  0  0  0  0  0  0  0  0  0
   -6.3609   26.0382   -0.1775 F   0  0  0  0  0  0  0  0  0  0  0  0
 13 14  1  0  0  0
 14 15  2  0  0  0
 15 16  1  0  0  0
 16 17  1  0  0  0
 17 18  1  0  0  0
 17 19  2  0  0  0
 19 12  1  0  0  0
 12 11  1  0  0  0
 11  1  1  0  0  0
  1  2  1  0  0  0
  2  3  2  0  0  0
  2  4  1  0  0  0
  4  5  1  0  0  0
  5  6  1  0  0  0
  6  7  1  0  0  0
  7 20  1  0  0  0
 20 21  1  0  0  0
 21 22  1  0  0  0
 22 23  1  0  0  0
 23 24  2  0  0  0
 24 25  1  0  0  0
 25 26  1  0  0  0
 25 27  2  0  0  0
 27 28  1  0  0  0
 28 29  1  0  0  0
  7  8  1  0  0  0
  8  9  1  0  0  0
 19 14  1  0  0  0
  9  4  1  0  0  0
 28 22  2  0  0  0
  1 10  1  0  0  0
M  END
> <minimizedAffinity>
-10.29630

$$$$
OCNT-2315849


 23 26  0  0  0  0  0  0  0  0999 V2000
   -3.5581   26.1015    4.7708 C   0  0  0  0  0  0  0  0  0  0  0  0
   -3.1129   25.3125    3.7383 C   0  0  0  0  0  0  0  0  0  0  0  0
   -4.2160   24.6395    3.2764 N   0  0  0  0  0  0  0  0  0  0  0  0
   -5.3409   24.9222    3.9657 N   0  0  0  0  0  0  0  0  0  0  0  0
   -4.9348   25.8190    4.8704 C   0  0  0  0  0  0  0  0  0  0  0  0
   -1.5289   31.5013    9.4641 C   0  0  0  0  0  0  0  0  0  0  0  0
   -1.4039   30.3645    8.4923 C   0  0  0  0  0  0  0  0  0  0  0  0
   -0.1465   29.8232    8.1949 C   0  0  0  0  0  0  0  0  0  0  0  0
    0.0013   28.7422    7.3152 C   0  0  0  0  0  0  0  0  0  0  0  0
   -1.1645   28.2114    6.7491 C   0  0  0  0  0  0  0  0  0  0  0  0
   -2.4270   28.7181    7.0366 C   0  0  0  0  0  0  0  0  0  0  0  0
   -2.5564   29.8012    7.9200 C   0  0  0  0  0  0  0  0  0  0  0  0
   -3.3993   28.0262    6.3658 N   0  0  0  0  0  0  0  0  0  0  0  0
   -2.7708   27.1000    5.6680 C   0  0  0  0  0  0  0  0  0  0  0  0
   -1.4103   27.1811    5.8679 N   0  0  0  0  0  0  0  0  0  0  0  0
   -0.4078   26.3455    5.2581 C   0  0  0  0  0  0  0  0  0  0  0  0
   -4.2533   23.6604    2.1960 C   0  0  0  0  0  0  0  0  0  0  0  0
   -5.4077   23.8996    1.2535 C   0  0  0  0  0  0  0  0  0  0  0  0
   -6.3984   22.9210    1.0778 C   0  0  0  0  0  0  0  0  0  0  0  0
   -7.4643   23.1402    0.2045 C   0  0  0  0  0  0  0  0  0  0  0  0
   -7.5494   24.3357   -0.5060 C   0  0  0  0  0  0  0  0  0  0  0  0
   -6.5686   25.3127   -0.3455 C   0  0  0  0  0  0  0  0  0  0  0  0
   -5.5015   25.0968    0.5285 C   0  0  0  0  0  0  0  0  0  0  0  0
  6  7  1  0  0  0
  7  8  2  0  0  0
  8  9  1  0  0  0
  9 10  2  0  0  0
 10 11  1  0  0  0
 11 12  2  0  0  0
 11 13  1  0  0  0
 13 14  2  0  0  0
 14  1  1  0  0  0
  1  2  2  0  0  0
  2  3  1  0  0  0
  3 17  1  0  0  0
 17 18  1  0  0  0
 18 19  2  0  0  0
 19 20  1  0  0  0
 20 21  2  0  0  0
 21 22  1  0  0  0
 22 23  2  0  0  0
  3  4  1  0  0  0
  4  5  2  0  0  0
 14 15  1  0  0  0
 15 16  1  0  0  0
 12  7  1  0  0  0
  5  1  1  0  0  0
 15 10  1  0  0  0
 23 18  1  0  0  0
M  END
> <minimizedAffinity>
-9.81043

$$$$
OCNT-2315862


 22 25  0  0  0  0  0  0  0  0999 V2000
   -2.6920   31.2288    7.3688 C   0  0  0  0  0  0  0  0  0  0  0  0
   -2.5364   29.9519    8.2066 C   0  0  0  0  0  0  0  0  0  0  0  0
   -1.1164   29.4797    8.1667 C   0  0  0  0  0  0  0  0  0  0  0  0
   -0.7012   28.3929    7.4307 C   0  0  0  0  0  0  0  0  0  0  0  0
   -1.5471   27.4898    6.6147 C   0  0  0  0  0  0  0  0  0  0  0  0
   -2.9470   28.1102    6.4358 C   0  0  0  0  0  0  0  0  0  0  0  0
   -3.4615   28.7870    7.7347 C   0  0  0  0  0  0  0  0  0  0  0  0
    0.6413   28.2800    7.6291 N   0  0  0  0  0  0  0  0  0  0  0  0
    1.1278   29.2243    8.4564 N   0  0  0  0  0  0  0  0  0  0  0  0
    0.0557   29.9542    8.7822 C   0  0  0  0  0  0  0  0  0  0  0  0
    1.2848   27.5933    7.2492 H   0  0  0  0  0  0  0  0  0  0  0  0
   -4.8982   29.2430    7.5870 C   0  0  0  0  0  0  0  0  0  0  0  0
   -5.5659   29.7584    8.4721 O   0  0  0  0  0  0  0  0  0  0  0  0
   -5.3341   28.9928    6.3200 O   0  0  0  0  0  0  0  0  0  0  0  0
   -6.4952   28.1527    6.2075 C   0  0  0  0  0  0  0  0  0  0  0  0
   -6.4445   27.3985    4.8909 C   0  0  0  0  0  0  0  0  0  0  0  0
   -5.5589   28.0287    3.7724 C   0  0  0  0  0  0  0  0  0  0  0  0
   -5.1005   26.6278    3.4610 C   0  0  0  0  0  0  0  0  0  0  0  0
   -3.6938   26.3726    2.9852 C   0  0  0  0  0  0  0  0  0  0  0  0
   -4.2871   25.2300    2.1206 C   0  0  0  0  0  0  0  0  0  0  0  0
   -5.6719   25.9145    2.2545 C   0  0  0  0  0  0  0  0  0  0  0  0
   -5.5150   26.1463    4.8340 C   0  0  0  0  0  0  0  0  0  0  0  0
  1  2  1  0  0  0
  2  3  1  0  0  0
  3  4  2  0  0  0
  4  5  1  0  0  0
  5  6  1  0  0  0
  6  7  1  0  0  0
  7 12  1  0  0  0
 12 13  2  0  0  0
 12 14  1  0  0  0
 14 15  1  0  0  0
 15 16  1  0  0  0
 16 17  1  0  0  0
 17 18  1  0  0  0
 18 19  1  0  0  0
 19 20  1  0  0  0
 20 21  1  0  0  0
 18 22  1  0  0  0
  4  8  1  0  0  0
  8  9  1  0  0  0
  9 10  2  0  0  0
  7  2  1  0  0  0
 22 16  1  0  0  0
 10  3  1  0  0  0
 21 18  1  0  0  0
  8 11  1  0  0  0
M  END
> <minimizedAffinity>
-8.15326

$$$$
OCNT-2315864


 21 24  0  0  0  0  0  0  0  0999 V2000
   -4.6378   25.4236    4.6609 N   0  0  0  0  0  0  0  0  0  0  0  0
   -3.9164   24.9175    3.5012 C   0  0  0  0  0  0  0  0  0  0  0  0
   -4.6082   25.2872    2.1947 C   0  0  0  0  0  0  0  0  0  0  0  0
   -6.0289   24.7345    2.0527 C   0  0  0  0  0  0  0  0  0  0  0  0
   -6.2419   23.4160    2.7967 C   0  0  0  0  0  0  0  0  0  0  0  0
   -6.4296   23.5329    4.3497 C   0  0  0  0  0  0  0  0  0  0  0  0
   -7.9619   23.3643    4.6299 C   0  0  0  0  0  0  0  0  0  0  0  0
   -8.3186   23.2026    6.1079 C   0  0  0  0  0  0  0  0  0  0  0  0
   -7.5594   22.0433    6.7398 C   0  0  0  0  0  0  0  0  0  0  0  0
   -6.0566   22.1597    6.5210 C   0  0  0  0  0  0  0  0  0  0  0  0
   -5.7050   22.3431    5.0432 C   0  0  0  0  0  0  0  0  0  0  0  0
   -5.9925   24.9078    4.9482 C   0  0  0  0  0  0  0  0  0  0  0  0
   -0.9296   27.0652    6.4723 C   0  0  0  0  0  0  0  0  0  0  0  0
   -1.4741   28.2802    6.8211 C   0  0  0  0  0  0  0  0  0  0  0  0
   -2.7701   28.2254    6.3875 N   0  0  0  0  0  0  0  0  0  0  0  0
   -3.7845   29.1541    6.4321 C   0  0  0  0  0  0  0  0  0  0  0  0
   -4.9646   28.8119    5.8978 C   0  0  0  0  0  0  0  0  0  0  0  0
   -5.2241   27.5896    5.3145 N   0  0  0  0  0  0  0  0  0  0  0  0
   -4.2861   26.6534    5.2605 C   0  0  0  0  0  0  0  0  0  0  0  0
   -2.9653   26.9883    5.8216 C   0  0  0  0  0  0  0  0  0  0  0  0
   -1.8562   26.2713    5.8441 N   0  0  0  0  0  0  0  0  0  0  0  0
 13 14  2  0  0  0
 14 15  1  0  0  0
 15 16  1  0  0  0
 16 17  2  0  0  0
 17 18  1  0  0  0
 18 19  2  0  0  0
 19  1  1  0  0  0
  1  2  1  0  0  0
  2  3  1  0  0  0
  3  4  1  0  0  0
  4  5  1  0  0  0
  5  6  1  0  0  0
  6  7  1  0  0  0
  7  8  1  0  0  0
  8  9  1  0  0  0
  9 10  1  0  0  0
 10 11  1  0  0  0
  6 12  1  0  0  0
 19 20  1  0  0  0
 20 21  2  0  0  0
 21 13  1  0  0  0
 20 15  1  0  0  0
 12  1  1  0  0  0
 11  6  1  0  0  0
M  END
> <minimizedAffinity>
-8.33302

$$$$
OCNT-2315875


 31 35  0  0  0  0  0  0  0  0999 V2000
   -4.9367   27.8670    6.1191 N   0  0  0  0  0  0  0  0  0  0  0  0
   -5.8094   27.3380    6.1705 H   0  0  0  0  0  0  0  0  0  0  0  0
   -3.9670   27.1795    5.4339 C   0  0  0  0  0  0  0  0  0  0  0  0
   -2.7266   27.2011    5.8563 N   0  0  0  0  0  0  0  0  0  0  0  0
   -1.7555   26.5807    5.1043 C   0  0  0  0  0  0  0  0  0  0  0  0
   -1.9981   25.9657    3.9420 C   0  0  0  0  0  0  0  0  0  0  0  0
   -3.3028   25.8897    3.4901 N   0  0  0  0  0  0  0  0  0  0  0  0
   -3.7773   25.2998    2.3733 N   0  0  0  0  0  0  0  0  0  0  0  0
   -5.1135   25.3574    2.4785 C   0  0  0  0  0  0  0  0  0  0  0  0
   -5.4843   26.0923    3.6315 C   0  0  0  0  0  0  0  0  0  0  0  0
   -4.3028   26.4439    4.2362 C   0  0  0  0  0  0  0  0  0  0  0  0
   -5.9850   24.7223    1.4812 C   0  0  0  0  0  0  0  0  0  0  0  0
   -6.2121   25.3068    0.2309 C   0  0  0  0  0  0  0  0  0  0  0  0
   -7.0617   24.6977   -0.7033 C   0  0  0  0  0  0  0  0  0  0  0  0
   -7.6962   23.4989   -0.3956 C   0  0  0  0  0  0  0  0  0  0  0  0
   -7.4774   22.8998    0.8417 C   0  0  0  0  0  0  0  0  0  0  0  0
   -6.6278   23.5073    1.7716 C   0  0  0  0  0  0  0  0  0  0  0  0
   -5.2377   29.2485    5.7717 C   0  0  0  0  0  0  0  0  0  0  0  0
   -4.7043   31.1322    7.3890 N   0  0  0  0  0  0  0  0  0  0  0  0
   -5.2834   31.6825    8.5020 C   0  0  0  0  0  0  0  0  0  0  0  0
   -6.4046   30.9334    8.7371 C   0  0  0  0  0  0  0  0  0  0  0  0
   -6.5235   29.9496    7.7985 N   0  0  0  0  0  0  0  0  0  0  0  0
   -5.5020   30.1018    6.9738 C   0  0  0  0  0  0  0  0  0  0  0  0
   -3.4798   31.5982    6.7836 C   0  0  0  0  0  0  0  0  0  0  0  0
   -2.4319   31.9295    7.8403 C   0  0  0  0  0  0  0  0  0  0  0  0
    0.8468   29.1212    7.8077 C   0  0  0  0  0  0  0  0  0  0  0  0
    0.4510   29.7240    9.0054 C   0  0  0  0  0  0  0  0  0  0  0  0
   -0.6113   30.6313    9.0152 C   0  0  0  0  0  0  0  0  0  0  0  0
   -1.2917   30.9432    7.8289 C   0  0  0  0  0  0  0  0  0  0  0  0
   -0.8982   30.3287    6.6343 C   0  0  0  0  0  0  0  0  0  0  0  0
    0.1710   29.4248    6.6226 C   0  0  0  0  0  0  0  0  0  0  0  0
 26 27  2  0  0  0
 27 28  1  0  0  0
 28 29  2  0  0  0
 29 25  1  0  0  0
 25 24  1  0  0  0
 24 19  1  0  0  0
 19 20  1  0  0  0
 20 21  2  0  0  0
 21 22  1  0  0  0
 22 23  2  0  0  0
 23 18  1  0  0  0
 18  1  1  0  0  0
  1  3  1  0  0  0
  3  4  2  0  0  0
  4  5  1  0  0  0
  5  6  2  0  0  0
  6  7  1  0  0  0
  7  8  1  0  0  0
  8  9  2  0  0  0
  9 12  1  0  0  0
 12 13  2  0  0  0
 13 14  1  0  0  0
 14 15  2  0  0  0
 15 16  1  0  0  0
 16 17  2  0  0  0
  9 10  1  0  0  0
 10 11  2  0  0  0
 29 30  1  0  0  0
 30 31  2  0  0  0
 31 26  1  0  0  0
 23 19  1  0  0  0
 11  3  1  0  0  0
 11  7  1  0  0  0
 17 12  1  0  0  0
  1  2  1  0  0  0
M  END
> <minimizedAffinity>
-11.24719

$$$$
OCNT-2315878


 24 26  0  0  0  0  0  0  0  0999 V2000
   -5.7953   27.2248    4.1527 N   0  0  0  0  0  0  0  0  0  0  0  0
   -5.9224   28.4573    3.3743 C   0  0  0  0  0  0  0  0  0  0  0  0
   -6.1837   29.6696    4.2722 C   0  0  0  0  0  0  0  0  0  0  0  0
   -5.3944   29.5434    5.5764 C   0  0  0  0  0  0  0  0  0  0  0  0
   -5.8645   28.3040    6.3572 C   0  0  0  0  0  0  0  0  0  0  0  0
   -6.4189   27.1860    5.4660 C   0  0  0  0  0  0  0  0  0  0  0  0
   -6.0119   23.7538    1.9118 C   0  0  0  0  0  0  0  0  0  0  0  0
   -6.2518   23.7810    3.2624 C   0  0  0  0  0  0  0  0  0  0  0  0
   -6.1747   24.9046    4.0125 N   0  0  0  0  0  0  0  0  0  0  0  0
   -5.8464   26.0576    3.3985 C   0  0  0  0  0  0  0  0  0  0  0  0
   -5.5955   26.1136    2.0782 N   0  0  0  0  0  0  0  0  0  0  0  0
   -5.6821   24.9679    1.3636 C   0  0  0  0  0  0  0  0  0  0  0  0
   -6.0866   22.5523    1.0717 C   0  0  0  0  0  0  0  0  0  0  0  0
   -5.8490   21.4301    1.4870 O   0  0  0  0  0  0  0  0  0  0  0  0
   -7.8501   22.7416   -0.4478 C   0  0  0  0  0  0  0  0  0  0  0  0
   -6.4502   22.8777   -0.1926 O   0  0  0  0  0  0  0  0  0  0  0  0
   -5.5329   30.7930    6.3439 N   0  0  0  0  0  0  0  0  0  0  0  0
   -6.4069   30.7644    6.8706 H   0  0  0  0  0  0  0  0  0  0  0  0
   -4.4249   31.0884    7.2668 C   0  0  0  0  0  0  0  0  0  0  0  0
   -4.8655   32.2335    8.1969 C   0  0  0  0  0  0  0  0  0  0  0  0
   -3.6782   32.9714    8.8076 C   0  0  0  0  0  0  0  0  0  0  0  0
   -2.5468   32.1135    8.8877 O   0  0  0  0  0  0  0  0  0  0  0  0
   -2.0312   31.7824    7.5969 C   0  0  0  0  0  0  0  0  0  0  0  0
   -3.1235   31.4845    6.5679 C   0  0  0  0  0  0  0  0  0  0  0  0
 15 16  1  0  0  0
 16 13  1  0  0  0
 13 14  2  0  0  0
 13  7  1  0  0  0
  7  8  2  0  0  0
  8  9  1  0  0  0
  9 10  2  0  0  0
 10  1  1  0  0  0
  1  2  1  0  0  0
  2  3  1  0  0  0
  3  4  1  0  0  0
  4 17  1  0  0  0
 17 19  1  0  0  0
 19 20  1  0  0  0
 20 21  1  0  0  0
 21 22  1  0  0  0
 22 23  1  0  0  0
 23 24  1  0  0  0
  4  5  1  0  0  0
  5  6  1  0  0  0
 10 11  1  0  0  0
 11 12  2  0  0  0
 12  7  1  0  0  0
  6  1  1  0  0  0
 24 19  1  0  0  0
 17 18  1  0  0  0
M  END
> <minimizedAffinity>
-8.10498

$$$$
OCNT-2315880


 28 31  0  0  0  0  0  0  0  0999 V2000
   -4.5811   28.3102    5.2818 N   0  0  0  0  0  0  0  0  0  0  0  0
   -4.0928   27.1027    4.8300 C   0  0  0  0  0  0  0  0  0  0  0  0
   -3.7668   26.1437    5.5186 O   0  0  0  0  0  0  0  0  0  0  0  0
   -4.0280   27.0845    3.4504 N   0  0  0  0  0  0  0  0  0  0  0  0
   -4.9374   28.9518    4.5929 H   0  0  0  0  0  0  0  0  0  0  0  0
   -3.9160   27.9760    2.9950 H   0  0  0  0  0  0  0  0  0  0  0  0
   -6.4495   29.3878    9.6914 C   0  0  0  0  0  0  0  0  0  0  0  0
   -5.5590   29.1486    8.5828 N   0  0  0  0  0  0  0  0  0  0  0  0
   -5.9062   28.7429    7.3315 C   0  0  0  0  0  0  0  0  0  0  0  0
   -4.7405   28.6693    6.6091 C   0  0  0  0  0  0  0  0  0  0  0  0
   -3.7231   29.0443    7.5359 C   0  0  0  0  0  0  0  0  0  0  0  0
   -4.2390   29.3470    8.7369 N   0  0  0  0  0  0  0  0  0  0  0  0
   -2.2392   29.1432    7.3054 C   0  0  0  0  0  0  0  0  0  0  0  0
   -1.5942   30.2017    8.2236 C   0  0  0  0  0  0  0  0  0  0  0  0
   -0.1018   29.9664    8.4765 C   0  0  0  0  0  0  0  0  0  0  0  0
    0.5697   29.2656    7.3045 C   0  0  0  0  0  0  0  0  0  0  0  0
   -0.0455   27.8910    7.0354 C   0  0  0  0  0  0  0  0  0  0  0  0
   -1.5211   27.7919    7.4333 C   0  0  0  0  0  0  0  0  0  0  0  0
   -3.4702   25.9473    2.7508 C   0  0  0  0  0  0  0  0  0  0  0  0
   -4.5627   25.0257    2.2633 C   0  0  0  0  0  0  0  0  0  0  0  0
   -4.9701   23.9307    3.0445 C   0  0  0  0  0  0  0  0  0  0  0  0
   -5.9951   23.0729    2.6261 C   0  0  0  0  0  0  0  0  0  0  0  0
   -6.5928   23.3674    1.4040 C   0  0  0  0  0  0  0  0  0  0  0  0
   -7.6059   22.6620    0.8282 O   0  0  0  0  0  0  0  0  0  0  0  0
   -7.8996   23.2801   -0.3460 C   0  0  0  0  0  0  0  0  0  0  0  0
   -7.0875   24.3747   -0.5341 C   0  0  0  0  0  0  0  0  0  0  0  0
   -6.2333   24.4400    0.5980 C   0  0  0  0  0  0  0  0  0  0  0  0
   -5.1999   25.2890    1.0321 C   0  0  0  0  0  0  0  0  0  0  0  0
  7  8  1  0  0  0
  8  9  1  0  0  0
  9 10  2  0  0  0
 10  1  1  0  0  0
  1  2  1  0  0  0
  2  3  2  0  0  0
  2  4  1  0  0  0
  4 19  1  0  0  0
 19 20  1  0  0  0
 20 21  2  0  0  0
 21 22  1  0  0  0
 22 23  2  0  0  0
 23 24  1  0  0  0
 24 25  1  0  0  0
 25 26  2  0  0  0
 26 27  1  0  0  0
 27 28  2  0  0  0
 10 11  1  0  0  0
 11 13  1  0  0  0
 13 14  1  0  0  0
 14 15  1  0  0  0
 15 16  1  0  0  0
 16 17  1  0  0  0
 17 18  1  0  0  0
 11 12  2  0  0  0
 12  8  1  0  0  0
 28 20  1  0  0  0
 18 13  1  0  0  0
 27 23  1  0  0  0
  1  5  1  0  0  0
  4  6  1  0  0  0
M  END
> <minimizedAffinity>
-10.06958

$$$$
OCNT-2315887


 23 25  0  0  0  0  0  0  0  0999 V2000
   -2.3109   28.0286    7.2131 C   0  0  0  0  0  0  0  0  0  0  0  0
   -1.3245   27.5498    7.7665 O   0  0  0  0  0  0  0  0  0  0  0  0
   -2.9359   29.1711    7.6711 N   0  0  0  0  0  0  0  0  0  0  0  0
   -3.6204   29.5856    7.0377 H   0  0  0  0  0  0  0  0  0  0  0  0
   -4.9758   24.7893    1.0278 C   0  0  0  0  0  0  0  0  0  0  0  0
   -4.7831   25.6525    2.2420 C   0  0  0  0  0  0  0  0  0  0  0  0
   -5.8028   26.5255    2.6523 C   0  0  0  0  0  0  0  0  0  0  0  0
   -5.6698   27.3223    3.7956 C   0  0  0  0  0  0  0  0  0  0  0  0
   -4.4809   27.1938    4.5071 C   0  0  0  0  0  0  0  0  0  0  0  0
   -4.1623   27.8766    5.6402 O   0  0  0  0  0  0  0  0  0  0  0  0
   -2.9139   27.4606    6.0265 C   0  0  0  0  0  0  0  0  0  0  0  0
   -2.4434   26.5140    5.1354 C   0  0  0  0  0  0  0  0  0  0  0  0
   -3.4489   26.3362    4.1508 C   0  0  0  0  0  0  0  0  0  0  0  0
   -3.6007   25.5430    2.9992 C   0  0  0  0  0  0  0  0  0  0  0  0
   -2.3583   30.0043    8.7002 C   0  0  0  0  0  0  0  0  0  0  0  0
   -1.3292   30.9991    8.1587 C   0  0  0  0  0  0  0  0  0  0  0  0
   -1.3077   32.1497    9.1649 C   0  0  0  0  0  0  0  0  0  0  0  0
   -2.4109   31.8556   10.1830 C   0  0  0  0  0  0  0  0  0  0  0  0
   -3.3497   30.8723    9.4825 C   0  0  0  0  0  0  0  0  0  0  0  0
   -4.3566   31.5966    8.6154 C   0  0  0  0  0  0  0  0  0  0  0  0
   -4.8633   31.1935    7.5810 O   0  0  0  0  0  0  0  0  0  0  0  0
   -4.7270   32.7853    9.1314 O   0  0  0  0  0  0  0  0  0  0  0  0
   -5.3949   33.1279    8.5007 H   0  0  0  0  0  0  0  0  0  0  0  0
  5  6  1  0  0  0
  6  7  2  0  0  0
  7  8  1  0  0  0
  8  9  2  0  0  0
  9 10  1  0  0  0
 10 11  1  0  0  0
 11  1  1  0  0  0
  1  2  2  0  0  0
  1  3  1  0  0  0
  3 15  1  0  0  0
 15 16  1  0  0  0
 16 17  1  0  0  0
 17 18  1  0  0  0
 18 19  1  0  0  0
 19 20  1  0  0  0
 20 21  2  0  0  0
 20 22  1  0  0  0
 11 12  2  0  0  0
 12 13  1  0  0  0
 13 14  2  0  0  0
 14  6  1  0  0  0
 13  9  1  0  0  0
 19 15  1  0  0  0
  3  4  1  0  0  0
 22 23  1  0  0  0
M  END
> <minimizedAffinity>
-8.85078

$$$$
OCNT-2315891


 29 32  0  0  0  0  0  0  0  0999 V2000
   -5.6664   24.7880    4.3954 N   0  0  0  0  0  0  0  0  0  0  0  0
   -4.7867   24.2356    3.4558 C   0  0  0  0  0  0  0  0  0  0  0  0
   -3.6153   24.5974    3.3436 O   0  0  0  0  0  0  0  0  0  0  0  0
   -5.2738   23.1607    2.5586 C   0  0  0  0  0  0  0  0  0  0  0  0
   -5.0621   21.8705    2.9499 N   0  0  0  0  0  0  0  0  0  0  0  0
   -5.5157   20.8771    2.1681 C   0  0  0  0  0  0  0  0  0  0  0  0
   -6.1800   21.0721    0.9703 C   0  0  0  0  0  0  0  0  0  0  0  0
   -6.3997   22.3973    0.5445 C   0  0  0  0  0  0  0  0  0  0  0  0
   -5.9424   23.4411    1.3596 C   0  0  0  0  0  0  0  0  0  0  0  0
   -6.3019   24.9750    0.6481 S   0  0  0  0  0  0  0  0  0  0  0  0
   -7.0566   24.2668   -0.7035 C   0  0  0  0  0  0  0  0  0  0  0  0
   -7.0425   22.8945   -0.6394 C   0  0  0  0  0  0  0  0  0  0  0  0
   -5.2159   25.9376    5.1849 C   0  0  0  0  0  0  0  0  0  0  0  0
   -5.8711   28.3642    5.8303 N   0  0  0  0  0  0  0  0  0  0  0  0
   -6.5002   29.4789    5.0971 C   0  0  0  0  0  0  0  0  0  0  0  0
   -6.1488   29.2819    3.6284 C   0  0  0  0  0  0  0  0  0  0  0  0
   -5.7304   27.8231    3.5086 C   0  0  0  0  0  0  0  0  0  0  0  0
   -6.0190   27.2228    4.8853 C   0  0  0  0  0  0  0  0  0  0  0  0
   -4.2699   30.1075    6.6072 C   0  0  0  0  0  0  0  0  0  0  0  0
   -4.4726   28.6524    6.1911 C   0  0  0  0  0  0  0  0  0  0  0  0
   -7.0655   24.3761    4.5435 C   0  0  0  0  0  0  0  0  0  0  0  0
   -7.3111   23.5296    5.7732 C   0  0  0  0  0  0  0  0  0  0  0  0
   -6.3064   22.7027    6.3004 C   0  0  0  0  0  0  0  0  0  0  0  0
   -6.5486   21.9180    7.4303 C   0  0  0  0  0  0  0  0  0  0  0  0
   -7.7953   21.9690    8.0437 C   0  0  0  0  0  0  0  0  0  0  0  0
   -8.0764   21.2165    9.1455 O   0  0  0  0  0  0  0  0  0  0  0  0
   -8.7971   22.7949    7.5509 C   0  0  0  0  0  0  0  0  0  0  0  0
   -8.5546   23.5783    6.4218 C   0  0  0  0  0  0  0  0  0  0  0  0
   -7.2887   20.6941    9.3685 H   0  0  0  0  0  0  0  0  0  0  0  0
 19 20  1  0  0  0
 20 14  1  0  0  0
 14 15  1  0  0  0
 15 16  1  0  0  0
 16 17  1  0  0  0
 17 18  1  0  0  0
 18 13  1  0  0  0
 13  1  1  0  0  0
  1 21  1  0  0  0
 21 22  1  0  0  0
 22 23  1  0  0  0
 23 24  2  0  0  0
 24 25  1  0  0  0
 25 26  1  0  0  0
 25 27  2  0  0  0
 27 28  1  0  0  0
  1  2  1  0  0  0
  2  3  2  0  0  0
  2  4  1  0  0  0
  4  5  1  0  0  0
  5  6  2  0  0  0
  6  7  1  0  0  0
  7  8  2  0  0  0
  8  9  1  0  0  0
  9 10  1  0  0  0
 10 11  1  0  0  0
 11 12  2  0  0  0
 18 14  1  0  0  0
 28 22  2  0  0  0
  9  4  2  0  0  0
 12  8  1  0  0  0
 26 29  1  0  0  0
M  END
> <minimizedAffinity>
-8.70427

$$$$
OCNT-2315895


 25 27  0  0  0  0  0  0  0  0999 V2000
   -2.4353   26.2332    4.1940 C   0  0  0  0  0  0  0  0  0  0  0  0
   -0.9613   25.8487    4.3237 C   0  0  0  0  0  0  0  0  0  0  0  0
   -0.1837   26.9300    5.0854 C   0  0  0  0  0  0  0  0  0  0  0  0
   -0.9945   27.6514    6.0848 N   0  0  0  0  0  0  0  0  0  0  0  0
   -2.0217   26.7886    6.6614 C   0  0  0  0  0  0  0  0  0  0  0  0
   -3.0516   26.4049    5.5929 C   0  0  0  0  0  0  0  0  0  0  0  0
   -4.3443   25.6116    2.7403 C   0  0  0  0  0  0  0  0  0  0  0  0
   -4.7848   26.7521    2.6715 O   0  0  0  0  0  0  0  0  0  0  0  0
   -3.1924   25.2564    3.4135 N   0  0  0  0  0  0  0  0  0  0  0  0
   -3.1038   24.2822    3.6703 H   0  0  0  0  0  0  0  0  0  0  0  0
   -7.5643   23.8457   -0.3086 O   0  0  0  0  0  0  0  0  0  0  0  0
   -6.7010   23.6368    0.5348 C   0  0  0  0  0  0  0  0  0  0  0  0
   -6.3488   22.2562    0.9556 C   0  0  0  0  0  0  0  0  0  0  0  0
   -5.4198   22.0697    1.9041 C   0  0  0  0  0  0  0  0  0  0  0  0
   -4.7506   23.1974    2.5127 C   0  0  0  0  0  0  0  0  0  0  0  0
   -5.0488   24.4445    2.1159 C   0  0  0  0  0  0  0  0  0  0  0  0
   -6.0043   24.6487    1.1439 N   0  0  0  0  0  0  0  0  0  0  0  0
   -6.2933   25.5891    0.9109 H   0  0  0  0  0  0  0  0  0  0  0  0
   -0.1562   28.2615    7.1262 C   0  0  0  0  0  0  0  0  0  0  0  0
   -0.6890   29.5930    7.6084 C   0  0  0  0  0  0  0  0  0  0  0  0
   -0.6304   29.9591    8.9036 C   0  0  0  0  0  0  0  0  0  0  0  0
   -1.1227   31.2791    9.4215 C   0  0  0  0  0  0  0  0  0  0  0  0
   -1.4132   32.2919    8.3141 C   0  0  0  0  0  0  0  0  0  0  0  0
   -2.1396   31.6333    7.1476 C   0  0  0  0  0  0  0  0  0  0  0  0
   -1.3137   30.4861    6.5594 C   0  0  0  0  0  0  0  0  0  0  0  0
 11 12  2  0  0  0
 12 13  1  0  0  0
 13 14  2  0  0  0
 14 15  1  0  0  0
 15 16  2  0  0  0
 16  7  1  0  0  0
  7  8  2  0  0  0
  7  9  1  0  0  0
  9  1  1  0  0  0
  1  2  1  0  0  0
  2  3  1  0  0  0
  3  4  1  0  0  0
  4 19  1  0  0  0
 19 20  1  0  0  0
 20 21  2  0  0  0
 21 22  1  0  0  0
 22 23  1  0  0  0
 23 24  1  0  0  0
 24 25  1  0  0  0
  4  5  1  0  0  0
  5  6  1  0  0  0
 16 17  1  0  0  0
 17 12  1  0  0  0
  6  1  1  0  0  0
 25 20  1  0  0  0
  9 10  1  0  0  0
 17 18  1  0  0  0
M  END
> <minimizedAffinity>
-9.22867

$$$$
OCNT-2315913


 25 27  0  0  0  0  0  0  0  0999 V2000
   -7.6720   22.6349   -0.2056 C   0  0  0  0  0  0  0  0  0  0  0  0
   -6.6678   23.1006    0.8064 C   0  0  0  0  0  0  0  0  0  0  0  0
   -6.6112   24.4368    1.0411 N   0  0  0  0  0  0  0  0  0  0  0  0
   -5.7235   24.8955    1.9398 C   0  0  0  0  0  0  0  0  0  0  0  0
   -5.6510   26.2564    2.1901 C   0  0  0  0  0  0  0  0  0  0  0  0
   -4.7464   26.7884    3.1176 C   0  0  0  0  0  0  0  0  0  0  0  0
   -3.8751   25.9572    3.8325 C   0  0  0  0  0  0  0  0  0  0  0  0
   -3.9420   24.5777    3.5816 C   0  0  0  0  0  0  0  0  0  0  0  0
   -4.8526   24.0438    2.6475 C   0  0  0  0  0  0  0  0  0  0  0  0
   -4.9263   22.6676    2.3916 C   0  0  0  0  0  0  0  0  0  0  0  0
   -5.8424   22.1932    1.4618 C   0  0  0  0  0  0  0  0  0  0  0  0
   -5.9374   20.8597    1.1900 O   0  0  0  0  0  0  0  0  0  0  0  0
   -5.2807   20.3789    1.7201 H   0  0  0  0  0  0  0  0  0  0  0  0
   -2.9236   26.5126    4.8103 C   0  0  0  0  0  0  0  0  0  0  0  0
   -1.5913   26.0618    4.8599 C   0  0  0  0  0  0  0  0  0  0  0  0
   -0.6836   26.5701    5.7948 C   0  0  0  0  0  0  0  0  0  0  0  0
   -1.0896   27.5476    6.6980 C   0  0  0  0  0  0  0  0  0  0  0  0
   -2.4040   28.0159    6.6508 C   0  0  0  0  0  0  0  0  0  0  0  0
   -3.3195   27.5015    5.7254 C   0  0  0  0  0  0  0  0  0  0  0  0
   -2.9148   29.2602    7.8045 S   0  0  0  0  0  0  0  0  0  0  0  0
   -4.0764   28.4321    8.7007 N   0  0  0  0  0  0  0  0  0  0  0  0
   -3.5784   30.3131    7.0748 O   0  0  0  0  0  0  0  0  0  0  0  0
   -1.8301   29.5107    8.7256 O   0  0  0  0  0  0  0  0  0  0  0  0
   -3.7549   28.3597    9.6676 H   0  0  0  0  0  0  0  0  0  0  0  0
   -4.3186   27.5233    8.3087 H   0  0  0  0  0  0  0  0  0  0  0  0
  1  2  1  0  0  0
  2  3  2  0  0  0
  3  4  1  0  0  0
  4  5  2  0  0  0
  5  6  1  0  0  0
  6  7  2  0  0  0
  7 14  1  0  0  0
 14 15  1  0  0  0
 15 16  2  0  0  0
 16 17  1  0  0  0
 17 18  2  0  0  0
 18 20  1  0  0  0
 20 21  1  0  0  0
 20 22  2  0  0  0
 20 23  2  0  0  0
 18 19  1  0  0  0
  7  8  1  0  0  0
  8  9  2  0  0  0
  9 10  1  0  0  0
 10 11  2  0  0  0
 11 12  1  0  0  0
 11  2  1  0  0  0
  9  4  1  0  0  0
 19 14  2  0  0  0
 21 24  1  0  0  0
 21 25  1  0  0  0
 12 13  1  0  0  0
M  END
> <minimizedAffinity>
-9.69235

$$$$
OCNT-2315930


 25 26  0  0  0  0  0  0  0  0999 V2000
    0.0045   28.2023    7.5529 N   0  0  0  0  0  0  0  0  0  0  0  0
    0.0485   27.8046    6.2461 C   0  0  0  0  0  0  0  0  0  0  0  0
    0.4523   28.4965    5.3223 O   0  0  0  0  0  0  0  0  0  0  0  0
   -0.4137   26.5286    6.0973 N   0  0  0  0  0  0  0  0  0  0  0  0
   -0.0092   27.4630    8.2387 H   0  0  0  0  0  0  0  0  0  0  0  0
   -1.1155   26.2285    6.7614 H   0  0  0  0  0  0  0  0  0  0  0  0
    1.3927   29.3610    9.2322 C   0  0  0  0  0  0  0  0  0  0  0  0
    0.5299   29.4898    7.9722 C   0  0  0  0  0  0  0  0  0  0  0  0
   -0.6225   30.4672    8.1373 C   0  0  0  0  0  0  0  0  0  0  0  0
   -1.4575   30.8267    7.0661 C   0  0  0  0  0  0  0  0  0  0  0  0
   -2.4924   31.7490    7.2464 C   0  0  0  0  0  0  0  0  0  0  0  0
   -2.6964   32.3272    8.4965 C   0  0  0  0  0  0  0  0  0  0  0  0
   -3.9682   33.4644    8.7160 Cl  0  0  0  0  0  0  0  0  0  0  0  0
   -1.8724   31.9946    9.5677 C   0  0  0  0  0  0  0  0  0  0  0  0
   -0.8379   31.0729    9.3871 C   0  0  0  0  0  0  0  0  0  0  0  0
   -0.5532   25.9722    4.7659 C   0  0  0  0  0  0  0  0  0  0  0  0
   -1.9547   26.1544    4.3023 C   0  0  0  0  0  0  0  0  0  0  0  0
   -2.9856   26.6551    4.9596 N   0  0  0  0  0  0  0  0  0  0  0  0
   -4.0293   26.5856    4.0573 C   0  0  0  0  0  0  0  0  0  0  0  0
   -3.5611   26.0485    2.8775 C   0  0  0  0  0  0  0  0  0  0  0  0
   -2.2374   25.7690    3.0216 O   0  0  0  0  0  0  0  0  0  0  0  0
   -5.4083   27.0719    4.4345 C   0  0  0  0  0  0  0  0  0  0  0  0
   -6.3420   25.9076    4.8220 C   0  0  0  0  0  0  0  0  0  0  0  0
   -5.3174   28.0323    5.6375 C   0  0  0  0  0  0  0  0  0  0  0  0
   -6.0347   27.8222    3.2431 C   0  0  0  0  0  0  0  0  0  0  0  0
  7  8  1  0  0  0
  8  1  1  0  0  0
  1  2  1  0  0  0
  2  3  2  0  0  0
  2  4  1  0  0  0
  4 16  1  0  0  0
 16 17  1  0  0  0
 17 18  2  0  0  0
 18 19  1  0  0  0
 19 22  1  0  0  0
 22 23  1  0  0  0
 22 24  1  0  0  0
 22 25  1  0  0  0
 19 20  2  0  0  0
 20 21  1  0  0  0
  8  9  1  0  0  0
  9 10  1  0  0  0
 10 11  2  0  0  0
 11 12  1  0  0  0
 12 13  1  0  0  0
 12 14  2  0  0  0
 14 15  1  0  0  0
 21 17  1  0  0  0
 15  9  2  0  0  0
  1  5  1  0  0  0
  4  6  1  0  0  0
M  END
> <minimizedAffinity>
-8.79970

$$$$
OCNT-2315937


 25 28  0  0  0  0  0  0  0  0999 V2000
   -4.5054   25.7595    1.6948 N   0  0  0  0  0  0  0  0  0  0  0  0
   -3.5955   25.3116    1.6107 H   0  0  0  0  0  0  0  0  0  0  0  0
   -4.3300   21.0524    3.7149 F   0  0  0  0  0  0  0  0  0  0  0  0
   -5.0503   21.6357    2.7492 C   0  0  0  0  0  0  0  0  0  0  0  0
   -6.0097   20.9041    2.0712 C   0  0  0  0  0  0  0  0  0  0  0  0
   -6.7489   21.5222    1.0599 C   0  0  0  0  0  0  0  0  0  0  0  0
   -6.5508   22.8562    0.7175 C   0  0  0  0  0  0  0  0  0  0  0  0
   -7.2861   23.3774   -0.2662 N   0  0  0  0  0  0  0  0  0  0  0  0
   -7.0529   24.6580   -0.5714 C   0  0  0  0  0  0  0  0  0  0  0  0
   -6.1689   25.4672    0.0220 N   0  0  0  0  0  0  0  0  0  0  0  0
   -5.4445   24.9428    1.0245 C   0  0  0  0  0  0  0  0  0  0  0  0
   -5.5852   23.5979    1.4174 C   0  0  0  0  0  0  0  0  0  0  0  0
   -4.8277   22.9685    2.4355 C   0  0  0  0  0  0  0  0  0  0  0  0
   -4.8121   26.1128    3.0909 C   0  0  0  0  0  0  0  0  0  0  0  0
   -5.7149   27.3510    3.1424 C   0  0  0  0  0  0  0  0  0  0  0  0
   -5.9563   27.7827    4.5860 C   0  0  0  0  0  0  0  0  0  0  0  0
   -4.6672   28.0207    5.2562 N   0  0  0  0  0  0  0  0  0  0  0  0
   -3.7782   26.8487    5.2608 C   0  0  0  0  0  0  0  0  0  0  0  0
   -3.4983   26.4152    3.8243 C   0  0  0  0  0  0  0  0  0  0  0  0
   -4.8437   28.5545    6.5576 C   0  0  0  0  0  0  0  0  0  0  0  0
   -6.1312   28.8114    7.0238 C   0  0  0  0  0  0  0  0  0  0  0  0
   -6.3186   29.3467    8.2948 C   0  0  0  0  0  0  0  0  0  0  0  0
   -5.2035   29.6132    9.0576 C   0  0  0  0  0  0  0  0  0  0  0  0
   -3.9601   29.3770    8.6081 N   0  0  0  0  0  0  0  0  0  0  0  0
   -3.7872   28.8529    7.3486 N   0  0  0  0  0  0  0  0  0  0  0  0
  3  4  1  0  0  0
  4  5  1  0  0  0
  5  6  2  0  0  0
  6  7  1  0  0  0
  7  8  2  0  0  0
  8  9  1  0  0  0
  9 10  2  0  0  0
 10 11  1  0  0  0
 11  1  1  0  0  0
  1 14  1  0  0  0
 14 15  1  0  0  0
 15 16  1  0  0  0
 16 17  1  0  0  0
 17 20  1  0  0  0
 20 21  2  0  0  0
 21 22  1  0  0  0
 22 23  2  0  0  0
 23 24  1  0  0  0
 24 25  2  0  0  0
 17 18  1  0  0  0
 18 19  1  0  0  0
 11 12  2  0  0  0
 12 13  1  0  0  0
 13  4  2  0  0  0
 12  7  1  0  0  0
 19 14  1  0  0  0
 25 20  1  0  0  0
  1  2  1  0  0  0
M  END
> <minimizedAffinity>
-9.30634

$$$$
OCNT-2315944


 28 32  0  0  0  0  0  0  0  0999 V2000
   -5.5730   28.2541    6.3809 C   0  0  0  0  0  0  0  0  0  0  0  0
   -6.2347   27.3844    5.5975 N   0  0  0  0  0  0  0  0  0  0  0  0
   -5.2467   26.8110    4.8573 N   0  0  0  0  0  0  0  0  0  0  0  0
   -4.0178   27.2540    5.3269 C   0  0  0  0  0  0  0  0  0  0  0  0
   -4.2067   28.1934    6.2306 N   0  0  0  0  0  0  0  0  0  0  0  0
   -5.5934   25.9337    3.7861 C   0  0  0  0  0  0  0  0  0  0  0  0
   -5.5519   26.3373    2.4437 C   0  0  0  0  0  0  0  0  0  0  0  0
   -5.9055   25.4410    1.4288 C   0  0  0  0  0  0  0  0  0  0  0  0
   -6.3103   24.1520    1.7517 C   0  0  0  0  0  0  0  0  0  0  0  0
   -6.6480   23.3015    0.7744 F   0  0  0  0  0  0  0  0  0  0  0  0
   -6.3793   23.7394    3.0746 C   0  0  0  0  0  0  0  0  0  0  0  0
   -6.0285   24.6294    4.0928 C   0  0  0  0  0  0  0  0  0  0  0  0
   -2.7176   26.7444    5.0109 C   0  0  0  0  0  0  0  0  0  0  0  0
   -2.3376   26.0463    3.8802 C   0  0  0  0  0  0  0  0  0  0  0  0
   -0.9582   25.6835    3.9061 C   0  0  0  0  0  0  0  0  0  0  0  0
   -0.3378   26.1010    5.0621 C   0  0  0  0  0  0  0  0  0  0  0  0
   -1.4151   26.9182    6.1096 S   0  0  0  0  0  0  0  0  0  0  0  0
   -7.0152   28.8100    8.2033 O   0  0  0  0  0  0  0  0  0  0  0  0
   -6.2342   29.1739    7.3286 C   0  0  0  0  0  0  0  0  0  0  0  0
   -5.8789   30.4839    7.1307 O   0  0  0  0  0  0  0  0  0  0  0  0
   -5.3194   31.1456    8.2654 C   0  0  0  0  0  0  0  0  0  0  0  0
   -5.1330   32.6236    7.9317 C   0  0  0  0  0  0  0  0  0  0  0  0
   -4.0953   33.0769    8.9453 C   0  0  0  0  0  0  0  0  0  0  0  0
   -3.1144   31.9054    8.9608 C   0  0  0  0  0  0  0  0  0  0  0  0
   -1.8098   32.1374    8.1651 C   0  0  0  0  0  0  0  0  0  0  0  0
   -1.0830   32.4149    9.3888 O   0  0  0  0  0  0  0  0  0  0  0  0
   -2.1592   31.8347   10.1680 C   0  0  0  0  0  0  0  0  0  0  0  0
   -3.9005   30.6480    8.5830 C   0  0  0  0  0  0  0  0  0  0  0  0
 18 19  2  0  0  0
 19 20  1  0  0  0
 20 21  1  0  0  0
 21 22  1  0  0  0
 22 23  1  0  0  0
 23 24  1  0  0  0
 24 25  1  0  0  0
 25 26  1  0  0  0
 26 27  1  0  0  0
 24 28  1  0  0  0
 19  1  1  0  0  0
  1  2  2  0  0  0
  2  3  1  0  0  0
  3  6  1  0  0  0
  6  7  1  0  0  0
  7  8  2  0  0  0
  8  9  1  0  0  0
  9 10  1  0  0  0
  9 11  2  0  0  0
 11 12  1  0  0  0
  3  4  1  0  0  0
  4 13  1  0  0  0
 13 14  2  0  0  0
 14 15  1  0  0  0
 15 16  2  0  0  0
 16 17  1  0  0  0
  4  5  2  0  0  0
 28 21  1  0  0  0
  5  1  1  0  0  0
 27 24  1  0  0  0
 12  6  2  0  0  0
 17 13  1  0  0  0
M  END
> <minimizedAffinity>
-9.52066

$$$$
OCNT-2315946


 26 29  0  0  0  0  0  0  0  0999 V2000
   -1.4275   28.3850    6.7175 C   0  0  0  0  0  0  0  0  0  0  0  0
   -0.2861   27.8695    6.1043 C   0  0  0  0  0  0  0  0  0  0  0  0
   -0.2927   26.7651    5.3203 N   0  0  0  0  0  0  0  0  0  0  0  0
   -1.5056   26.1801    5.1821 C   0  0  0  0  0  0  0  0  0  0  0  0
   -2.6691   26.6715    5.7719 C   0  0  0  0  0  0  0  0  0  0  0  0
   -2.6314   27.7692    6.5524 N   0  0  0  0  0  0  0  0  0  0  0  0
   -0.4375   30.9887    9.3117 C   0  0  0  0  0  0  0  0  0  0  0  0
   -0.4129   29.8441    8.5121 C   0  0  0  0  0  0  0  0  0  0  0  0
   -1.4264   29.5912    7.5710 C   0  0  0  0  0  0  0  0  0  0  0  0
   -2.4589   30.5477    7.4564 C   0  0  0  0  0  0  0  0  0  0  0  0
   -2.4998   31.7073    8.2490 C   0  0  0  0  0  0  0  0  0  0  0  0
   -1.4755   31.9100    9.1819 C   0  0  0  0  0  0  0  0  0  0  0  0
   -3.5848   32.6875    8.1102 C   0  0  0  0  0  0  0  0  0  0  0  0
   -4.3276   32.7643    6.9907 N   0  0  0  0  0  0  0  0  0  0  0  0
   -5.1990   33.7553    7.2233 N   0  0  0  0  0  0  0  0  0  0  0  0
   -5.0619   34.3265    8.4491 C   0  0  0  0  0  0  0  0  0  0  0  0
   -4.0251   33.6593    9.0538 C   0  0  0  0  0  0  0  0  0  0  0  0
   -5.8649   33.9878    6.4941 H   0  0  0  0  0  0  0  0  0  0  0  0
   -3.9160   26.0615    5.6250 N   0  0  0  0  0  0  0  0  0  0  0  0
   -4.2435   25.9052    6.5839 H   0  0  0  0  0  0  0  0  0  0  0  0
   -4.9199   26.8747    4.9164 C   0  0  0  0  0  0  0  0  0  0  0  0
   -4.5868   26.8618    3.4230 C   0  0  0  0  0  0  0  0  0  0  0  0
   -5.4342   25.7398    2.8255 C   0  0  0  0  0  0  0  0  0  0  0  0
   -6.1771   25.1455    3.9371 N   0  0  0  0  0  0  0  0  0  0  0  0
   -6.3039   26.2108    4.9387 C   0  0  0  0  0  0  0  0  0  0  0  0
   -7.0920   24.8148    3.6353 H   0  0  0  0  0  0  0  0  0  0  0  0
  7  8  2  0  0  0
  8  9  1  0  0  0
  9  1  1  0  0  0
  1  2  1  0  0  0
  2  3  2  0  0  0
  3  4  1  0  0  0
  4  5  2  0  0  0
  5 19  1  0  0  0
 19 21  1  0  0  0
 21 22  1  0  0  0
 22 23  1  0  0  0
 23 24  1  0  0  0
 24 25  1  0  0  0
  5  6  1  0  0  0
  9 10  2  0  0  0
 10 11  1  0  0  0
 11 13  1  0  0  0
 13 14  2  0  0  0
 14 15  1  0  0  0
 15 16  1  0  0  0
 16 17  2  0  0  0
 11 12  2  0  0  0
 12  7  1  0  0  0
  6  1  2  0  0  0
 17 13  1  0  0  0
 25 21  1  0  0  0
 19 20  1  0  0  0
 24 26  1  0  0  0
 15 18  1  0  0  0
M  END
> <minimizedAffinity>
-8.68017

$$$$
OCNT-2315948


 29 32  0  0  0  0  0  0  0  0999 V2000
   -4.1999   26.7532    5.0531 C   0  0  0  0  0  0  0  0  0  0  0  0
   -3.3255   26.4367    4.2535 O   0  0  0  0  0  0  0  0  0  0  0  0
   -5.3485   26.0147    5.2980 N   0  0  0  0  0  0  0  0  0  0  0  0
   -6.0574   26.4611    5.8637 H   0  0  0  0  0  0  0  0  0  0  0  0
   -3.4931   29.7471    7.3652 C   0  0  0  0  0  0  0  0  0  0  0  0
   -4.5335   30.1292    6.6545 N   0  0  0  0  0  0  0  0  0  0  0  0
   -4.9330   29.1224    5.7888 C   0  0  0  0  0  0  0  0  0  0  0  0
   -6.1531   29.3656    4.9721 C   0  0  0  0  0  0  0  0  0  0  0  0
   -4.1367   27.9881    5.8170 C   0  0  0  0  0  0  0  0  0  0  0  0
   -2.9254   28.1703    7.0186 S   0  0  0  0  0  0  0  0  0  0  0  0
   -4.9363   32.1555    9.0727 C   0  0  0  0  0  0  0  0  0  0  0  0
   -3.5195   31.7295    9.1476 C   0  0  0  0  0  0  0  0  0  0  0  0
   -2.6760   32.3520    9.9809 N   0  0  0  0  0  0  0  0  0  0  0  0
   -1.4560   31.7267    9.8171 O   0  0  0  0  0  0  0  0  0  0  0  0
   -1.5653   30.7350    8.8895 C   0  0  0  0  0  0  0  0  0  0  0  0
   -0.3254   29.9826    8.6207 C   0  0  0  0  0  0  0  0  0  0  0  0
   -2.8621   30.6982    8.4310 C   0  0  0  0  0  0  0  0  0  0  0  0
   -5.6967   24.7526    4.7702 C   0  0  0  0  0  0  0  0  0  0  0  0
   -5.6997   23.5699    5.5091 C   0  0  0  0  0  0  0  0  0  0  0  0
   -6.0601   22.3621    4.9071 C   0  0  0  0  0  0  0  0  0  0  0  0
   -6.4247   22.3263    3.5614 C   0  0  0  0  0  0  0  0  0  0  0  0
   -6.4382   23.5008    2.8019 C   0  0  0  0  0  0  0  0  0  0  0  0
   -6.0715   24.7086    3.4179 C   0  0  0  0  0  0  0  0  0  0  0  0
   -6.8156   23.4561    1.3997 C   0  0  0  0  0  0  0  0  0  0  0  0
   -6.5931   24.4583    0.4785 C   0  0  0  0  0  0  0  0  0  0  0  0
   -7.1190   24.0196   -0.7032 N   0  0  0  0  0  0  0  0  0  0  0  0
   -7.6699   22.7989   -0.6226 N   0  0  0  0  0  0  0  0  0  0  0  0
   -7.4896   22.4583    0.6561 C   0  0  0  0  0  0  0  0  0  0  0  0
   -7.1415   24.4984   -1.5978 H   0  0  0  0  0  0  0  0  0  0  0  0
 11 12  1  0  0  0
 12 13  2  0  0  0
 13 14  1  0  0  0
 14 15  1  0  0  0
 15 16  1  0  0  0
 15 17  2  0  0  0
 17  5  1  0  0  0
  5  6  2  0  0  0
  6  7  1  0  0  0
  7  8  1  0  0  0
  7  9  2  0  0  0
  9  1  1  0  0  0
  1  2  2  0  0  0
  1  3  1  0  0  0
  3 18  1  0  0  0
 18 19  2  0  0  0
 19 20  1  0  0  0
 20 21  2  0  0  0
 21 22  1  0  0  0
 22 24  1  0  0  0
 24 25  2  0  0  0
 25 26  1  0  0  0
 26 27  1  0  0  0
 27 28  2  0  0  0
 22 23  2  0  0  0
  9 10  1  0  0  0
 17 12  1  0  0  0
 10  5  1  0  0  0
 23 18  1  0  0  0
 28 24  1  0  0  0
  3  4  1  0  0  0
 26 29  1  0  0  0
M  END
> <minimizedAffinity>
-9.90786

$$$$
OCNT-2315950


 25 28  0  0  0  0  0  0  0  0999 V2000
   -7.3247   21.3885    4.0390 C   0  0  0  0  0  0  0  0  0  0  0  0
   -6.8264   22.7605    3.9680 N   0  0  0  0  0  0  0  0  0  0  0  0
   -5.7338   23.0789    4.8870 C   0  0  0  0  0  0  0  0  0  0  0  0
   -5.5398   24.5860    4.9594 C   0  0  0  0  0  0  0  0  0  0  0  0
   -5.2095   25.1556    3.6461 N   0  0  0  0  0  0  0  0  0  0  0  0
   -4.2441   26.1689    3.5215 C   0  0  0  0  0  0  0  0  0  0  0  0
   -3.6071   26.3898    2.4956 O   0  0  0  0  0  0  0  0  0  0  0  0
   -5.8979   24.5610    2.5218 C   0  0  0  0  0  0  0  0  0  0  0  0
   -5.8351   25.1540    1.2445 C   0  0  0  0  0  0  0  0  0  0  0  0
   -6.5338   24.6241    0.1606 C   0  0  0  0  0  0  0  0  0  0  0  0
   -7.3192   23.5045    0.3464 C   0  0  0  0  0  0  0  0  0  0  0  0
   -8.0067   23.0001   -0.6867 F   0  0  0  0  0  0  0  0  0  0  0  0
   -7.4155   22.8983    1.5932 C   0  0  0  0  0  0  0  0  0  0  0  0
   -6.7033   23.3882    2.7063 C   0  0  0  0  0  0  0  0  0  0  0  0
   -4.0039   26.9670    4.7007 C   0  0  0  0  0  0  0  0  0  0  0  0
   -4.8121   27.8763    5.3420 C   0  0  0  0  0  0  0  0  0  0  0  0
   -6.0992   28.2427    4.9563 C   0  0  0  0  0  0  0  0  0  0  0  0
   -6.6282   29.2269    5.8163 C   0  0  0  0  0  0  0  0  0  0  0  0
   -5.9139   29.7699    6.9304 C   0  0  0  0  0  0  0  0  0  0  0  0
   -6.7789   31.0957    7.9828 Br  0  0  0  0  0  0  0  0  0  0  0  0
   -4.6082   29.3849    7.2974 C   0  0  0  0  0  0  0  0  0  0  0  0
   -4.0640   28.4011    6.4576 C   0  0  0  0  0  0  0  0  0  0  0  0
   -2.8616   27.8070    6.4997 N   0  0  0  0  0  0  0  0  0  0  0  0
   -2.8842   26.9048    5.4944 N   0  0  0  0  0  0  0  0  0  0  0  0
   -1.7739   25.9854    5.3770 C   0  0  0  0  0  0  0  0  0  0  0  0
  1  2  1  0  0  0
  2  3  1  0  0  0
  3  4  1  0  0  0
  4  5  1  0  0  0
  5  6  1  0  0  0
  6  7  2  0  0  0
  6 15  1  0  0  0
 15 16  2  0  0  0
 16 17  1  0  0  0
 17 18  2  0  0  0
 18 19  1  0  0  0
 19 20  1  0  0  0
 19 21  2  0  0  0
 21 22  1  0  0  0
 22 23  2  0  0  0
 23 24  1  0  0  0
 24 25  1  0  0  0
  5  8  1  0  0  0
  8  9  1  0  0  0
  9 10  2  0  0  0
 10 11  1  0  0  0
 11 12  1  0  0  0
 11 13  2  0  0  0
 13 14  1  0  0  0
 14  2  1  0  0  0
 24 15  1  0  0  0
 14  8  2  0  0  0
 22 16  1  0  0  0
M  END
> <minimizedAffinity>
-9.92830

$$$$
OCNT-2315960


 26 28  0  0  0  0  0  0  0  0999 V2000
   -5.6414   28.1568    6.4277 N   0  0  0  0  0  0  0  0  0  0  0  0
   -5.1954   29.4065    6.0804 C   0  0  0  0  0  0  0  0  0  0  0  0
   -5.6443   30.0185    5.1155 O   0  0  0  0  0  0  0  0  0  0  0  0
   -4.1813   29.9150    6.8975 N   0  0  0  0  0  0  0  0  0  0  0  0
   -3.6424   31.2088    6.4861 C   0  0  0  0  0  0  0  0  0  0  0  0
   -2.8978   31.9759    7.5781 C   0  0  0  0  0  0  0  0  0  0  0  0
   -2.6861   31.1819    8.8682 C   0  0  0  0  0  0  0  0  0  0  0  0
   -1.7346   31.9185    9.8123 C   0  0  0  0  0  0  0  0  0  0  0  0
   -2.2682   29.7276    8.5770 C   0  0  0  0  0  0  0  0  0  0  0  0
   -3.3177   29.0254    7.6901 C   0  0  0  0  0  0  0  0  0  0  0  0
   -5.6461   27.9629    7.4148 H   0  0  0  0  0  0  0  0  0  0  0  0
   -0.9007   29.5723    8.0919 N   0  0  0  0  0  0  0  0  0  0  0  0
    0.1905   29.3321    8.8891 C   0  0  0  0  0  0  0  0  0  0  0  0
    1.2550   29.2333    8.0259 C   0  0  0  0  0  0  0  0  0  0  0  0
    0.8412   29.3890    6.7316 N   0  0  0  0  0  0  0  0  0  0  0  0
   -0.4566   29.5828    6.8006 C   0  0  0  0  0  0  0  0  0  0  0  0
   -6.7107   27.5235    5.6844 C   0  0  0  0  0  0  0  0  0  0  0  0
   -5.0895   24.7903    2.7384 C   0  0  0  0  0  0  0  0  0  0  0  0
   -5.3374   26.1226    2.4024 C   0  0  0  0  0  0  0  0  0  0  0  0
   -5.8668   27.0053    3.3539 C   0  0  0  0  0  0  0  0  0  0  0  0
   -6.1631   26.5693    4.6533 C   0  0  0  0  0  0  0  0  0  0  0  0
   -5.9070   25.2345    4.9886 C   0  0  0  0  0  0  0  0  0  0  0  0
   -5.3782   24.3636    4.0382 C   0  0  0  0  0  0  0  0  0  0  0  0
   -5.1453   23.0911    4.3958 F   0  0  0  0  0  0  0  0  0  0  0  0
   -5.4969   23.0600    1.1530 C   0  0  0  0  0  0  0  0  0  0  0  0
   -4.5734   23.8399    1.8999 O   0  0  0  0  0  0  0  0  0  0  0  0
 25 26  1  0  0  0
 26 18  1  0  0  0
 18 19  1  0  0  0
 19 20  2  0  0  0
 20 21  1  0  0  0
 21 17  1  0  0  0
 17  1  1  0  0  0
  1  2  1  0  0  0
  2  3  2  0  0  0
  2  4  1  0  0  0
  4  5  1  0  0  0
  5  6  1  0  0  0
  6  7  1  0  0  0
  7  8  1  0  0  0
  7  9  1  0  0  0
  9 12  1  0  0  0
 12 13  1  0  0  0
 13 14  2  0  0  0
 14 15  1  0  0  0
 15 16  2  0  0  0
  9 10  1  0  0  0
 21 22  2  0  0  0
 22 23  1  0  0  0
 23 24  1  0  0  0
 23 18  2  0  0  0
 10  4  1  0  0  0
 16 12  1  0  0  0
  1 11  1  0  0  0
M  END
> <minimizedAffinity>
-9.38311

$$$$
OCNT-2315966


 29 32  0  0  0  0  0  0  0  0999 V2000
   -3.0561   27.3650    6.1494 N   0  0  0  0  0  0  0  0  0  0  0  0
   -2.5818   26.8668    6.9054 H   0  0  0  0  0  0  0  0  0  0  0  0
   -5.5433   23.6977    2.1917 C   0  0  0  0  0  0  0  0  0  0  0  0
   -6.5059   23.6847    3.1289 C   0  0  0  0  0  0  0  0  0  0  0  0
   -6.3390   24.4846    4.3644 C   0  0  0  0  0  0  0  0  0  0  0  0
   -7.2258   24.4760    5.2126 O   0  0  0  0  0  0  0  0  0  0  0  0
   -5.1521   25.1804    4.4106 N   0  0  0  0  0  0  0  0  0  0  0  0
   -4.8156   25.9797    5.4764 N   0  0  0  0  0  0  0  0  0  0  0  0
   -3.6580   26.5240    5.2621 C   0  0  0  0  0  0  0  0  0  0  0  0
   -2.8855   26.1177    3.7412 S   0  0  0  0  0  0  0  0  0  0  0  0
   -4.2533   25.1193    3.3834 C   0  0  0  0  0  0  0  0  0  0  0  0
   -4.3840   24.4364    2.2962 N   0  0  0  0  0  0  0  0  0  0  0  0
   -5.6907   22.8945    0.9175 C   0  0  0  0  0  0  0  0  0  0  0  0
   -7.6782   23.8182   -0.3886 C   0  0  0  0  0  0  0  0  0  0  0  0
   -7.1453   22.6879    0.4805 C   0  0  0  0  0  0  0  0  0  0  0  0
   -3.5403   28.6774    6.5700 C   0  0  0  0  0  0  0  0  0  0  0  0
   -2.7769   29.2411    7.7914 C   0  0  0  0  0  0  0  0  0  0  0  0
   -3.2768   30.6339    8.1589 C   0  0  0  0  0  0  0  0  0  0  0  0
   -4.1562   31.3101    7.2958 C   0  0  0  0  0  0  0  0  0  0  0  0
   -4.6106   32.5943    7.6075 C   0  0  0  0  0  0  0  0  0  0  0  0
   -4.1881   33.2147    8.7805 C   0  0  0  0  0  0  0  0  0  0  0  0
   -4.7497   34.7951    9.1620 Cl  0  0  0  0  0  0  0  0  0  0  0  0
   -3.3125   32.5630    9.6448 C   0  0  0  0  0  0  0  0  0  0  0  0
   -2.8559   31.2799    9.3346 C   0  0  0  0  0  0  0  0  0  0  0  0
   -1.3193   29.2405    7.6213 N   0  0  0  0  0  0  0  0  0  0  0  0
   -0.3938   28.9302    8.5827 C   0  0  0  0  0  0  0  0  0  0  0  0
    0.8364   29.0255    7.9772 C   0  0  0  0  0  0  0  0  0  0  0  0
    0.5543   29.3910    6.6497 C   0  0  0  0  0  0  0  0  0  0  0  0
   -0.7556   29.5193    6.4232 N   0  0  0  0  0  0  0  0  0  0  0  0
 14 15  1  0  0  0
 15 13  1  0  0  0
 13  3  1  0  0  0
  3  4  2  0  0  0
  4  5  1  0  0  0
  5  6  2  0  0  0
  5  7  1  0  0  0
  7  8  1  0  0  0
  8  9  2  0  0  0
  9  1  1  0  0  0
  1 16  1  0  0  0
 16 17  1  0  0  0
 17 18  1  0  0  0
 18 19  1  0  0  0
 19 20  2  0  0  0
 20 21  1  0  0  0
 21 22  1  0  0  0
 21 23  2  0  0  0
 23 24  1  0  0  0
 17 25  1  0  0  0
 25 26  1  0  0  0
 26 27  2  0  0  0
 27 28  1  0  0  0
 28 29  2  0  0  0
  9 10  1  0  0  0
 10 11  1  0  0  0
 11 12  2  0  0  0
 12  3  1  0  0  0
 11  7  1  0  0  0
 24 18  2  0  0  0
 29 25  1  0  0  0
  1  2  1  0  0  0
M  END
> <minimizedAffinity>
-9.44016

$$$$
OCNT-2315972


 29 32  0  0  0  0  0  0  0  0999 V2000
   -6.4724   30.9239    8.4518 C   0  0  0  0  0  0  0  0  0  0  0  0
   -5.5049   32.0765    8.2590 C   0  0  0  0  0  0  0  0  0  0  0  0
   -5.8971   33.1731    7.8617 O   0  0  0  0  0  0  0  0  0  0  0  0
   -4.1696   31.8271    8.5550 N   0  0  0  0  0  0  0  0  0  0  0  0
   -3.6626   30.5516    9.0669 C   0  0  0  0  0  0  0  0  0  0  0  0
   -2.3282   30.7073    9.7866 C   0  0  0  0  0  0  0  0  0  0  0  0
   -1.2569   31.3605    8.8963 C   0  0  0  0  0  0  0  0  0  0  0  0
   -1.8581   32.3087    7.8446 C   0  0  0  0  0  0  0  0  0  0  0  0
   -3.1885   32.8851    8.3088 C   0  0  0  0  0  0  0  0  0  0  0  0
   -0.3447   30.3442    8.2750 C   0  0  0  0  0  0  0  0  0  0  0  0
    0.5701   29.4945    8.8629 C   0  0  0  0  0  0  0  0  0  0  0  0
    1.1217   28.7871    7.8313 N   0  0  0  0  0  0  0  0  0  0  0  0
    0.5433   29.2257    6.6761 C   0  0  0  0  0  0  0  0  0  0  0  0
   -0.3420   30.1652    6.9106 N   0  0  0  0  0  0  0  0  0  0  0  0
    1.8279   28.0671    7.9029 H   0  0  0  0  0  0  0  0  0  0  0  0
   -7.1402   30.5364    7.1359 C   0  0  0  0  0  0  0  0  0  0  0  0
   -5.1913   27.9005    5.7328 C   0  0  0  0  0  0  0  0  0  0  0  0
   -6.4065   27.3263    5.6896 N   0  0  0  0  0  0  0  0  0  0  0  0
   -7.2536   28.2988    6.2144 O   0  0  0  0  0  0  0  0  0  0  0  0
   -6.4678   29.3653    6.5319 C   0  0  0  0  0  0  0  0  0  0  0  0
   -5.1971   29.1730    6.2678 N   0  0  0  0  0  0  0  0  0  0  0  0
   -1.5883   26.0142    4.3899 C   0  0  0  0  0  0  0  0  0  0  0  0
   -2.7291   25.9943    3.5888 C   0  0  0  0  0  0  0  0  0  0  0  0
   -3.9093   26.6107    4.0270 C   0  0  0  0  0  0  0  0  0  0  0  0
   -3.9666   27.2548    5.2713 C   0  0  0  0  0  0  0  0  0  0  0  0
   -2.8159   27.2680    6.0696 C   0  0  0  0  0  0  0  0  0  0  0  0
   -1.6396   26.6516    5.6307 C   0  0  0  0  0  0  0  0  0  0  0  0
    0.6523   26.3408    3.6675 C   0  0  0  0  0  0  0  0  0  0  0  0
   -0.3789   25.4550    4.0832 O   0  0  0  0  0  0  0  0  0  0  0  0
 28 29  1  0  0  0
 29 22  1  0  0  0
 22 23  1  0  0  0
 23 24  2  0  0  0
 24 25  1  0  0  0
 25 17  1  0  0  0
 17 18  2  0  0  0
 18 19  1  0  0  0
 19 20  1  0  0  0
 20 16  1  0  0  0
 16  1  1  0  0  0
  1  2  1  0  0  0
  2  3  2  0  0  0
  2  4  1  0  0  0
  4  5  1  0  0  0
  5  6  1  0  0  0
  6  7  1  0  0  0
  7 10  1  0  0  0
 10 11  2  0  0  0
 11 12  1  0  0  0
 12 13  1  0  0  0
 13 14  2  0  0  0
  7  8  1  0  0  0
  8  9  1  0  0  0
 20 21  2  0  0  0
 25 26  2  0  0  0
 26 27  1  0  0  0
 27 22  2  0  0  0
 21 17  1  0  0  0
  9  4  1  0  0  0
 14 10  1  0  0  0
 12 15  1  0  0  0
M  END
> <minimizedAffinity>
-9.05030

$$$$
OCNT-2315974


 28 30  0  0  0  0  0  0  0  0999 V2000
   -4.0394   29.4040    7.0552 C   0  0  0  0  0  0  0  0  0  0  0  0
   -4.1374   28.5800    7.9613 O   0  0  0  0  0  0  0  0  0  0  0  0
   -4.2632   29.0870    5.7271 N   0  0  0  0  0  0  0  0  0  0  0  0
   -4.4315   29.8832    5.1166 H   0  0  0  0  0  0  0  0  0  0  0  0
   -4.8060   27.7937    5.3296 C   0  0  0  0  0  0  0  0  0  0  0  0
   -5.7316   27.9494    4.1154 C   0  0  0  0  0  0  0  0  0  0  0  0
   -5.9258   26.6218    3.3955 C   0  0  0  0  0  0  0  0  0  0  0  0
   -4.6522   26.0546    2.9415 N   0  0  0  0  0  0  0  0  0  0  0  0
   -4.5005   25.3172    1.7670 C   0  0  0  0  0  0  0  0  0  0  0  0
   -3.4126   25.1062    1.2363 O   0  0  0  0  0  0  0  0  0  0  0  0
   -3.4391   26.5159    3.6127 C   0  0  0  0  0  0  0  0  0  0  0  0
   -3.6805   26.7766    5.0936 C   0  0  0  0  0  0  0  0  0  0  0  0
   -5.6992   24.7490    1.1145 C   0  0  0  0  0  0  0  0  0  0  0  0
   -6.3113   23.6017    1.6153 C   0  0  0  0  0  0  0  0  0  0  0  0
   -7.4128   23.1176    0.9354 C   0  0  0  0  0  0  0  0  0  0  0  0
   -7.9146   23.6884   -0.1816 N   0  0  0  0  0  0  0  0  0  0  0  0
   -7.2762   24.7806   -0.6576 C   0  0  0  0  0  0  0  0  0  0  0  0
   -6.1685   25.3434   -0.0543 C   0  0  0  0  0  0  0  0  0  0  0  0
   -4.6105   31.8266    6.7240 C   0  0  0  0  0  0  0  0  0  0  0  0
   -3.5744   30.8566    7.2805 C   0  0  0  0  0  0  0  0  0  0  0  0
   -2.3306   31.0638    6.5969 O   0  0  0  0  0  0  0  0  0  0  0  0
   -1.2363   30.4660    7.1691 C   0  0  0  0  0  0  0  0  0  0  0  0
   -0.4899   29.4850    6.5102 C   0  0  0  0  0  0  0  0  0  0  0  0
    0.5928   28.8774    7.1517 C   0  0  0  0  0  0  0  0  0  0  0  0
    0.9263   29.2350    8.4573 C   0  0  0  0  0  0  0  0  0  0  0  0
    0.1728   30.1973    9.1290 C   0  0  0  0  0  0  0  0  0  0  0  0
   -0.9098   30.8049    8.4895 C   0  0  0  0  0  0  0  0  0  0  0  0
   -1.8088   32.0013    9.3534 Cl  0  0  0  0  0  0  0  0  0  0  0  0
 19 20  1  0  0  0
 20 21  1  0  0  0
 21 22  1  0  0  0
 22 23  2  0  0  0
 23 24  1  0  0  0
 24 25  2  0  0  0
 25 26  1  0  0  0
 26 27  2  0  0  0
 27 28  1  0  0  0
 20  1  1  0  0  0
  1  2  2  0  0  0
  1  3  1  0  0  0
  3  5  1  0  0  0
  5  6  1  0  0  0
  6  7  1  0  0  0
  7  8  1  0  0  0
  8  9  1  0  0  0
  9 10  2  0  0  0
  9 13  1  0  0  0
 13 14  2  0  0  0
 14 15  1  0  0  0
 15 16  2  0  0  0
 16 17  1  0  0  0
 17 18  2  0  0  0
  8 11  1  0  0  0
 11 12  1  0  0  0
 27 22  1  0  0  0
 12  5  1  0  0  0
 18 13  1  0  0  0
  3  4  1  0  0  0
M  END
> <minimizedAffinity>
-9.66378

$$$$
OCNT-2315975


 25 27  0  0  0  0  0  0  0  0999 V2000
   -5.4743   29.8744    6.2097 N   0  0  0  0  0  0  0  0  0  0  0  0
   -4.1265   29.6575    6.4207 N   0  0  0  0  0  0  0  0  0  0  0  0
   -3.6597   29.8543    7.6147 C   0  0  0  0  0  0  0  0  0  0  0  0
   -4.4748   30.3170    8.7585 C   0  0  0  0  0  0  0  0  0  0  0  0
   -5.7722   30.5233    8.5300 C   0  0  0  0  0  0  0  0  0  0  0  0
   -6.3554   30.3017    7.1915 C   0  0  0  0  0  0  0  0  0  0  0  0
   -7.5561   30.5055    7.0277 O   0  0  0  0  0  0  0  0  0  0  0  0
   -2.2086   29.6324    7.8660 C   0  0  0  0  0  0  0  0  0  0  0  0
   -1.5382   30.5087    8.7332 C   0  0  0  0  0  0  0  0  0  0  0  0
   -0.1765   30.3368    8.9887 C   0  0  0  0  0  0  0  0  0  0  0  0
    0.5100   29.2986    8.3701 C   0  0  0  0  0  0  0  0  0  0  0  0
    1.8166   29.1345    8.6128 F   0  0  0  0  0  0  0  0  0  0  0  0
   -0.1374   28.4307    7.4968 C   0  0  0  0  0  0  0  0  0  0  0  0
   -1.5005   28.5972    7.2387 C   0  0  0  0  0  0  0  0  0  0  0  0
   -5.9537   29.6941    4.8454 C   0  0  0  0  0  0  0  0  0  0  0  0
   -5.9562   25.5594    3.6363 C   0  0  0  0  0  0  0  0  0  0  0  0
   -5.6883   26.5535    2.6929 C   0  0  0  0  0  0  0  0  0  0  0  0
   -5.6784   27.8908    3.0909 C   0  0  0  0  0  0  0  0  0  0  0  0
   -5.9352   28.2401    4.4261 C   0  0  0  0  0  0  0  0  0  0  0  0
   -6.2275   27.2286    5.3547 C   0  0  0  0  0  0  0  0  0  0  0  0
   -6.2408   25.8892    4.9633 C   0  0  0  0  0  0  0  0  0  0  0  0
   -6.1185   23.9589    1.3682 C   0  0  0  0  0  0  0  0  0  0  0  0
   -5.9841   23.8561    3.1337 S   0  0  0  0  0  0  0  0  0  0  0  0
   -7.2074   23.2653    3.6431 O   0  0  0  0  0  0  0  0  0  0  0  0
   -4.6918   23.2810    3.4557 O   0  0  0  0  0  0  0  0  0  0  0  0
 22 23  1  0  0  0
 23 24  2  0  0  0
 23 25  2  0  0  0
 23 16  1  0  0  0
 16 17  1  0  0  0
 17 18  2  0  0  0
 18 19  1  0  0  0
 19 15  1  0  0  0
 15  1  1  0  0  0
  1  2  1  0  0  0
  2  3  2  0  0  0
  3  8  1  0  0  0
  8  9  1  0  0  0
  9 10  2  0  0  0
 10 11  1  0  0  0
 11 12  1  0  0  0
 11 13  2  0  0  0
 13 14  1  0  0  0
  3  4  1  0  0  0
  4  5  2  0  0  0
  5  6  1  0  0  0
  6  7  2  0  0  0
 19 20  2  0  0  0
 20 21  1  0  0  0
 21 16  2  0  0  0
  6  1  1  0  0  0
 14  8  2  0  0  0
M  END
> <minimizedAffinity>
-9.70058

$$$$
OCNT-2315988


 21 23  0  0  0  0  0  0  0  0999 V2000
   -0.5485   27.9125    7.2657 C   0  0  0  0  0  0  0  0  0  0  0  0
   -1.2692   27.2497    6.1307 C   0  0  0  0  0  0  0  0  0  0  0  0
   -0.5802   26.4115    5.2418 C   0  0  0  0  0  0  0  0  0  0  0  0
   -1.2423   25.7976    4.1688 C   0  0  0  0  0  0  0  0  0  0  0  0
   -2.6079   26.0038    3.9621 C   0  0  0  0  0  0  0  0  0  0  0  0
   -3.2971   26.8275    4.8419 C   0  0  0  0  0  0  0  0  0  0  0  0
   -2.6320   27.4455    5.9075 C   0  0  0  0  0  0  0  0  0  0  0  0
   -3.7638   28.4556    6.8333 S   0  0  0  0  0  0  0  0  0  0  0  0
   -5.1019   28.0431    5.7541 C   0  0  0  0  0  0  0  0  0  0  0  0
   -6.2310   28.4906    5.8886 O   0  0  0  0  0  0  0  0  0  0  0  0
   -4.6708   27.1446    4.7936 N   0  0  0  0  0  0  0  0  0  0  0  0
   -5.5674   26.6986    3.7469 C   0  0  0  0  0  0  0  0  0  0  0  0
   -5.9206   25.2064    3.8704 C   0  0  0  0  0  0  0  0  0  0  0  0
   -6.0033   24.6545    4.9701 O   0  0  0  0  0  0  0  0  0  0  0  0
   -6.2024   24.5198    2.6798 N   0  0  0  0  0  0  0  0  0  0  0  0
   -6.4901   23.0872    2.7968 C   0  0  0  0  0  0  0  0  0  0  0  0
   -7.4320   22.5914    1.7054 C   0  0  0  0  0  0  0  0  0  0  0  0
   -6.9361   22.9791    0.3187 C   0  0  0  0  0  0  0  0  0  0  0  0
   -6.7096   24.4854    0.2446 C   0  0  0  0  0  0  0  0  0  0  0  0
   -5.7763   25.0002    1.3511 C   0  0  0  0  0  0  0  0  0  0  0  0
   -4.3117   24.6419    1.0740 C   0  0  0  0  0  0  0  0  0  0  0  0
  1  2  1  0  0  0
  2  3  2  0  0  0
  3  4  1  0  0  0
  4  5  2  0  0  0
  5  6  1  0  0  0
  6  7  2  0  0  0
  7  8  1  0  0  0
  8  9  1  0  0  0
  9 10  2  0  0  0
  9 11  1  0  0  0
 11 12  1  0  0  0
 12 13  1  0  0  0
 13 14  2  0  0  0
 13 15  1  0  0  0
 15 16  1  0  0  0
 16 17  1  0  0  0
 17 18  1  0  0  0
 18 19  1  0  0  0
 19 20  1  0  0  0
 20 21  1  0  0  0
  7  2  1  0  0  0
 20 15  1  0  0  0
 11  6  1  0  0  0
M  END
> <minimizedAffinity>
-8.43902

$$$$
OCNT-2315990


 31 34  0  0  0  0  0  0  0  0999 V2000
   -6.2494   28.6818    9.8554 C   0  0  0  0  0  0  0  0  0  0  0  0
   -6.3356   29.6934    8.7076 C   0  0  0  0  0  0  0  0  0  0  0  0
   -5.3910   30.8719    8.8798 C   0  0  0  0  0  0  0  0  0  0  0  0
   -5.7394   32.1710    8.4796 C   0  0  0  0  0  0  0  0  0  0  0  0
   -4.8554   33.2314    8.6731 C   0  0  0  0  0  0  0  0  0  0  0  0
   -3.6202   33.0070    9.2786 C   0  0  0  0  0  0  0  0  0  0  0  0
   -3.2589   31.7282    9.7056 C   0  0  0  0  0  0  0  0  0  0  0  0
   -4.1458   30.6680    9.5061 C   0  0  0  0  0  0  0  0  0  0  0  0
   -2.0211   31.6528   10.2823 O   0  0  0  0  0  0  0  0  0  0  0  0
   -0.8746   31.9338    9.4713 C   0  0  0  0  0  0  0  0  0  0  0  0
   -0.5203   30.8050    8.5278 C   0  0  0  0  0  0  0  0  0  0  0  0
    0.3847   29.8174    8.9126 C   0  0  0  0  0  0  0  0  0  0  0  0
    0.6810   28.7910    8.0205 C   0  0  0  0  0  0  0  0  0  0  0  0
    0.0667   28.7728    6.7746 C   0  0  0  0  0  0  0  0  0  0  0  0
   -0.8254   29.7865    6.4709 C   0  0  0  0  0  0  0  0  0  0  0  0
   -1.1347   30.7950    7.3160 N   0  0  0  0  0  0  0  0  0  0  0  0
   -6.0726   29.0619    7.4243 N   0  0  0  0  0  0  0  0  0  0  0  0
   -6.7796   29.3920    6.2854 C   0  0  0  0  0  0  0  0  0  0  0  0
   -7.6700   30.2389    6.3183 O   0  0  0  0  0  0  0  0  0  0  0  0
   -5.3743   28.3349    7.4037 H   0  0  0  0  0  0  0  0  0  0  0  0
   -6.3976   28.6731    5.0841 C   0  0  0  0  0  0  0  0  0  0  0  0
   -6.1563   29.1080    3.7976 C   0  0  0  0  0  0  0  0  0  0  0  0
   -5.8031   28.1338    2.8854 N   0  0  0  0  0  0  0  0  0  0  0  0
   -5.7825   26.9431    3.4590 C   0  0  0  0  0  0  0  0  0  0  0  0
   -6.1806   26.9701    5.1386 S   0  0  0  0  0  0  0  0  0  0  0  0
   -5.4364   25.6818    2.7778 C   0  0  0  0  0  0  0  0  0  0  0  0
   -4.7707   24.6208    3.3881 C   0  0  0  0  0  0  0  0  0  0  0  0
   -4.4657   23.4618    2.7456 N   0  0  0  0  0  0  0  0  0  0  0  0
   -4.8601   23.3978    1.4557 C   0  0  0  0  0  0  0  0  0  0  0  0
   -5.5256   24.4397    0.8358 C   0  0  0  0  0  0  0  0  0  0  0  0
   -5.8254   25.5931    1.4754 N   0  0  0  0  0  0  0  0  0  0  0  0
  1  2  1  0  0  0
  2 17  1  0  0  0
 17 18  1  0  0  0
 18 19  2  0  0  0
 18 21  1  0  0  0
 21 22  2  0  0  0
 22 23  1  0  0  0
 23 24  2  0  0  0
 24 26  1  0  0  0
 26 27  2  0  0  0
 27 28  1  0  0  0
 28 29  2  0  0  0
 29 30  1  0  0  0
 30 31  2  0  0  0
 24 25  1  0  0  0
  2  3  1  0  0  0
  3  4  2  0  0  0
  4  5  1  0  0  0
  5  6  2  0  0  0
  6  7  1  0  0  0
  7  9  1  0  0  0
  9 10  1  0  0  0
 10 11  1  0  0  0
 11 12  2  0  0  0
 12 13  1  0  0  0
 13 14  2  0  0  0
 14 15  1  0  0  0
 15 16  2  0  0  0
  7  8  2  0  0  0
 25 21  1  0  0  0
  8  3  1  0  0  0
 31 26  1  0  0  0
 16 11  1  0  0  0
 17 20  1  0  0  0
M  END
> <minimizedAffinity>
-9.61105

$$$$
OCNT-2315994


 28 31  0  0  0  0  0  0  0  0999 V2000
   -7.2742   29.7425    5.9153 O   0  0  0  0  0  0  0  0  0  0  0  0
   -6.0572   29.7351    5.7673 C   0  0  0  0  0  0  0  0  0  0  0  0
   -5.4267   29.4315    4.5841 N   0  0  0  0  0  0  0  0  0  0  0  0
   -4.4158   29.3605    4.6217 H   0  0  0  0  0  0  0  0  0  0  0  0
   -5.1154   30.0403    6.8483 C   0  0  0  0  0  0  0  0  0  0  0  0
   -5.4542   30.7277    7.9965 C   0  0  0  0  0  0  0  0  0  0  0  0
   -4.0933   30.8821    9.0180 S   0  0  0  0  0  0  0  0  0  0  0  0
   -3.1270   30.0216    7.8754 C   0  0  0  0  0  0  0  0  0  0  0  0
   -3.7754   29.6370    6.7871 N   0  0  0  0  0  0  0  0  0  0  0  0
   -1.7025   29.7594    8.1321 C   0  0  0  0  0  0  0  0  0  0  0  0
   -0.9868   30.5387    9.0362 C   0  0  0  0  0  0  0  0  0  0  0  0
    0.3290   30.3414    9.3106 N   0  0  0  0  0  0  0  0  0  0  0  0
    0.9087   29.3230    8.6383 C   0  0  0  0  0  0  0  0  0  0  0  0
    0.2089   28.5400    7.7364 C   0  0  0  0  0  0  0  0  0  0  0  0
   -1.1026   28.7373    7.4642 N   0  0  0  0  0  0  0  0  0  0  0  0
   -6.1370   28.9552    3.4270 C   0  0  0  0  0  0  0  0  0  0  0  0
   -6.0242   27.4579    3.3095 C   0  0  0  0  0  0  0  0  0  0  0  0
   -6.1767   26.6335    4.4290 C   0  0  0  0  0  0  0  0  0  0  0  0
   -6.0964   25.2397    4.3085 C   0  0  0  0  0  0  0  0  0  0  0  0
   -5.8684   24.6379    3.0594 C   0  0  0  0  0  0  0  0  0  0  0  0
   -5.7275   25.4709    1.9438 C   0  0  0  0  0  0  0  0  0  0  0  0
   -5.5144   24.9849    0.7144 F   0  0  0  0  0  0  0  0  0  0  0  0
   -5.8067   26.8596    2.0638 C   0  0  0  0  0  0  0  0  0  0  0  0
   -5.7888   23.2182    2.9492 N   0  0  0  0  0  0  0  0  0  0  0  0
   -6.7443   22.3726    2.4162 C   0  0  0  0  0  0  0  0  0  0  0  0
   -6.2400   21.0986    2.5195 C   0  0  0  0  0  0  0  0  0  0  0  0
   -5.0074   21.1149    3.0962 N   0  0  0  0  0  0  0  0  0  0  0  0
   -4.7616   22.3843    3.3423 C   0  0  0  0  0  0  0  0  0  0  0  0
  1  2  2  0  0  0
  2  3  1  0  0  0
  3 16  1  0  0  0
 16 17  1  0  0  0
 17 18  1  0  0  0
 18 19  2  0  0  0
 19 20  1  0  0  0
 20 24  1  0  0  0
 24 25  1  0  0  0
 25 26  2  0  0  0
 26 27  1  0  0  0
 27 28  2  0  0  0
 20 21  2  0  0  0
 21 22  1  0  0  0
 21 23  1  0  0  0
  2  5  1  0  0  0
  5  6  2  0  0  0
  6  7  1  0  0  0
  7  8  1  0  0  0
  8 10  1  0  0  0
 10 11  2  0  0  0
 11 12  1  0  0  0
 12 13  2  0  0  0
 13 14  1  0  0  0
 14 15  2  0  0  0
  8  9  2  0  0  0
 23 17  2  0  0  0
  9  5  1  0  0  0
 28 24  1  0  0  0
 15 10  1  0  0  0
  3  4  1  0  0  0
M  END
> <minimizedAffinity>
-8.59248

$$$$
OCNT-2315996


 31 34  0  0  0  0  0  0  0  0999 V2000
   -3.3426   27.6775    6.0890 N   0  0  0  0  0  0  0  0  0  0  0  0
   -4.5189   27.7245    5.3902 C   0  0  0  0  0  0  0  0  0  0  0  0
   -5.2665   28.6968    5.3192 O   0  0  0  0  0  0  0  0  0  0  0  0
   -4.8357   26.5375    4.7177 N   0  0  0  0  0  0  0  0  0  0  0  0
   -6.0020   26.5638    3.8383 C   0  0  0  0  0  0  0  0  0  0  0  0
   -6.0119   25.4214    2.8297 C   0  0  0  0  0  0  0  0  0  0  0  0
   -5.8479   24.0393    3.4783 C   0  0  0  0  0  0  0  0  0  0  0  0
   -5.1922   24.0932    4.8625 C   0  0  0  0  0  0  0  0  0  0  0  0
   -4.1977   25.2420    4.9637 C   0  0  0  0  0  0  0  0  0  0  0  0
   -2.6509   26.9948    5.8299 H   0  0  0  0  0  0  0  0  0  0  0  0
   -3.4252   31.4411    9.0895 C   0  0  0  0  0  0  0  0  0  0  0  0
   -2.5445   32.2840    9.7768 C   0  0  0  0  0  0  0  0  0  0  0  0
   -1.1759   32.0415    9.7508 C   0  0  0  0  0  0  0  0  0  0  0  0
   -0.6539   30.9709    9.0195 C   0  0  0  0  0  0  0  0  0  0  0  0
   -1.5434   30.1539    8.2999 C   0  0  0  0  0  0  0  0  0  0  0  0
   -2.9250   30.3648    8.3152 C   0  0  0  0  0  0  0  0  0  0  0  0
   -3.6590   29.4729    7.5385 N   0  0  0  0  0  0  0  0  0  0  0  0
   -2.8525   28.6198    6.9570 C   0  0  0  0  0  0  0  0  0  0  0  0
   -1.1958   28.8091    7.2833 S   0  0  0  0  0  0  0  0  0  0  0  0
   -4.9592   33.1055    8.6538 C   0  0  0  0  0  0  0  0  0  0  0  0
   -4.7677   31.7725    9.1291 O   0  0  0  0  0  0  0  0  0  0  0  0
   -7.1653   23.2601    3.5056 C   0  0  0  0  0  0  0  0  0  0  0  0
   -7.5932   22.7562    2.4712 O   0  0  0  0  0  0  0  0  0  0  0  0
   -7.7721   23.2013    4.7461 N   0  0  0  0  0  0  0  0  0  0  0  0
   -7.2945   23.6466    5.5179 H   0  0  0  0  0  0  0  0  0  0  0  0
   -8.9791   22.5468    5.0801 C   0  0  0  0  0  0  0  0  0  0  0  0
   -9.8488   23.2141    5.9446 C   0  0  0  0  0  0  0  0  0  0  0  0
  -11.0392   22.5983    6.2970 C   0  0  0  0  0  0  0  0  0  0  0  0
  -11.4115   21.3814    5.8547 N   0  0  0  0  0  0  0  0  0  0  0  0
  -10.5558   20.7561    5.0207 C   0  0  0  0  0  0  0  0  0  0  0  0
   -9.3441   21.2903    4.6087 C   0  0  0  0  0  0  0  0  0  0  0  0
 20 21  1  0  0  0
 21 11  1  0  0  0
 11 12  1  0  0  0
 12 13  2  0  0  0
 13 14  1  0  0  0
 14 15  2  0  0  0
 15 16  1  0  0  0
 16 17  1  0  0  0
 17 18  2  0  0  0
 18  1  1  0  0  0
  1  2  1  0  0  0
  2  3  2  0  0  0
  2  4  1  0  0  0
  4  5  1  0  0  0
  5  6  1  0  0  0
  6  7  1  0  0  0
  7 22  1  0  0  0
 22 23  2  0  0  0
 22 24  1  0  0  0
 24 26  1  0  0  0
 26 27  2  0  0  0
 27 28  1  0  0  0
 28 29  2  0  0  0
 29 30  1  0  0  0
 30 31  2  0  0  0
  7  8  1  0  0  0
  8  9  1  0  0  0
 18 19  1  0  0  0
 16 11  2  0  0  0
  9  4  1  0  0  0
 19 15  1  0  0  0
 31 26  1  0  0  0
  1 10  1  0  0  0
 24 25  1  0  0  0
M  END
> <minimizedAffinity>
-9.35210

$$$$
OCNT-2316012


 24 26  0  0  0  0  0  0  0  0999 V2000
   -2.5543   27.5057    6.4464 C   0  0  0  0  0  0  0  0  0  0  0  0
   -1.2999   27.3035    7.1849 N   0  0  0  0  0  0  0  0  0  0  0  0
   -0.5343   27.2623    6.5100 H   0  0  0  0  0  0  0  0  0  0  0  0
    1.2245   29.2670    8.7789 C   0  0  0  0  0  0  0  0  0  0  0  0
    0.0619   29.3274    7.7874 C   0  0  0  0  0  0  0  0  0  0  0  0
    0.5997   29.3107    6.3475 C   0  0  0  0  0  0  0  0  0  0  0  0
   -1.1294   28.3795    8.1654 C   0  0  0  0  0  0  0  0  0  0  0  0
   -2.1107   29.5300    7.7896 C   0  0  0  0  0  0  0  0  0  0  0  0
   -3.1813   29.8991    8.8161 C   0  0  0  0  0  0  0  0  0  0  0  0
   -2.7439   31.2550    9.3581 C   0  0  0  0  0  0  0  0  0  0  0  0
   -1.2246   31.1715    9.3468 C   0  0  0  0  0  0  0  0  0  0  0  0
   -0.9348   30.5232    7.9933 C   0  0  0  0  0  0  0  0  0  0  0  0
   -2.7509   26.4055    5.3909 C   0  0  0  0  0  0  0  0  0  0  0  0
   -3.9099   25.5737    5.7175 N   0  0  0  0  0  0  0  0  0  0  0  0
   -4.1288   25.3635    6.6893 H   0  0  0  0  0  0  0  0  0  0  0  0
   -5.1865   25.4410    4.6481 S   0  0  0  0  0  0  0  0  0  0  0  0
   -4.6188   25.0087    3.3904 O   0  0  0  0  0  0  0  0  0  0  0  0
   -6.2445   24.7024    5.3007 O   0  0  0  0  0  0  0  0  0  0  0  0
   -5.6935   27.1299    4.4610 C   0  0  0  0  0  0  0  0  0  0  0  0
   -6.1428   27.8354    5.5816 C   0  0  0  0  0  0  0  0  0  0  0  0
   -6.5304   29.1680    5.4431 C   0  0  0  0  0  0  0  0  0  0  0  0
   -6.4611   29.7892    4.1947 C   0  0  0  0  0  0  0  0  0  0  0  0
   -6.0004   29.0835    3.0813 C   0  0  0  0  0  0  0  0  0  0  0  0
   -5.6107   27.7504    3.2113 C   0  0  0  0  0  0  0  0  0  0  0  0
  4  5  1  0  0  0
  5  6  1  0  0  0
  5  7  1  0  0  0
  7  2  1  0  0  0
  2  1  1  0  0  0
  1 13  1  0  0  0
 13 14  1  0  0  0
 14 16  1  0  0  0
 16 17  2  0  0  0
 16 18  2  0  0  0
 16 19  1  0  0  0
 19 20  2  0  0  0
 20 21  1  0  0  0
 21 22  2  0  0  0
 22 23  1  0  0  0
 23 24  2  0  0  0
  7  8  1  0  0  0
  8  9  1  0  0  0
  9 10  1  0  0  0
 10 11  1  0  0  0
 11 12  1  0  0  0
 12  5  1  0  0  0
 24 19  1  0  0  0
 12  8  1  0  0  0
  2  3  1  0  0  0
 14 15  1  0  0  0
M  END
> <minimizedAffinity>
-8.87611

$$$$
OCNT-2316017


 25 27  0  0  0  0  0  0  0  0999 V2000
   -3.3766   25.8697    5.7984 N   0  0  0  0  0  0  0  0  0  0  0  0
   -3.4507   25.4595    6.7266 H   0  0  0  0  0  0  0  0  0  0  0  0
   -2.1057   26.3760    5.5441 C   0  0  0  0  0  0  0  0  0  0  0  0
   -1.3156   25.9982    4.5237 C   0  0  0  0  0  0  0  0  0  0  0  0
    0.0489   26.5287    4.3147 C   0  0  0  0  0  0  0  0  0  0  0  0
    0.7290   26.1597    3.3637 O   0  0  0  0  0  0  0  0  0  0  0  0
    0.5051   27.4290    5.2303 N   0  0  0  0  0  0  0  0  0  0  0  0
   -0.2741   27.8923    6.2951 C   0  0  0  0  0  0  0  0  0  0  0  0
    0.2234   28.8493    7.1711 C   0  0  0  0  0  0  0  0  0  0  0  0
   -0.4861   29.3697    8.1960 N   0  0  0  0  0  0  0  0  0  0  0  0
   -1.7499   28.9207    8.3394 C   0  0  0  0  0  0  0  0  0  0  0  0
   -2.3315   27.9642    7.5184 C   0  0  0  0  0  0  0  0  0  0  0  0
   -1.5778   27.4134    6.4749 C   0  0  0  0  0  0  0  0  0  0  0  0
    1.4402   27.7829    5.0777 H   0  0  0  0  0  0  0  0  0  0  0  0
   -4.2435   25.1731    4.8337 C   0  0  0  0  0  0  0  0  0  0  0  0
   -5.7699   25.4697    5.0451 C   0  0  0  0  0  0  0  0  0  0  0  0
   -5.9815   26.9483    4.6999 C   0  0  0  0  0  0  0  0  0  0  0  0
   -5.7602   27.4296    3.3983 C   0  0  0  0  0  0  0  0  0  0  0  0
   -5.9312   28.7825    3.1027 C   0  0  0  0  0  0  0  0  0  0  0  0
   -6.3216   29.6708    4.1026 C   0  0  0  0  0  0  0  0  0  0  0  0
   -6.5444   29.2078    5.3981 C   0  0  0  0  0  0  0  0  0  0  0  0
   -6.3758   27.8547    5.6970 C   0  0  0  0  0  0  0  0  0  0  0  0
   -5.9922   23.7093    3.3427 C   0  0  0  0  0  0  0  0  0  0  0  0
   -6.7046   24.5906    4.2717 N   0  0  0  0  0  0  0  0  0  0  0  0
   -7.5084   23.7597    5.1810 C   0  0  0  0  0  0  0  0  0  0  0  0
 23 24  1  0  0  0
 24 25  1  0  0  0
 24 16  1  0  0  0
 16 15  1  0  0  0
 15  1  1  0  0  0
  1  3  1  0  0  0
  3  4  2  0  0  0
  4  5  1  0  0  0
  5  6  2  0  0  0
  5  7  1  0  0  0
  7  8  1  0  0  0
  8  9  2  0  0  0
  9 10  1  0  0  0
 10 11  2  0  0  0
 11 12  1  0  0  0
 12 13  2  0  0  0
 16 17  1  0  0  0
 17 18  2  0  0  0
 18 19  1  0  0  0
 19 20  2  0  0  0
 20 21  1  0  0  0
 21 22  2  0  0  0
 13  3  1  0  0  0
 22 17  1  0  0  0
 13  8  1  0  0  0
  1  2  1  0  0  0
  7 14  1  0  0  0
M  END
> <minimizedAffinity>
-8.59864

$$$$
OCNT-2316040


 27 30  0  0  0  0  0  0  0  0999 V2000
   -1.9180   27.6758    7.5431 N   0  0  0  0  0  0  0  0  0  0  0  0
   -2.7398   27.1619    7.8713 H   0  0  0  0  0  0  0  0  0  0  0  0
   -1.1033   29.8078    8.4762 C   0  0  0  0  0  0  0  0  0  0  0  0
   -1.4408   31.0788    8.9444 C   0  0  0  0  0  0  0  0  0  0  0  0
   -2.7832   31.4706    8.9882 C   0  0  0  0  0  0  0  0  0  0  0  0
   -3.1706   32.7388    9.4544 C   0  0  0  0  0  0  0  0  0  0  0  0
   -4.5191   33.0885    9.4977 C   0  0  0  0  0  0  0  0  0  0  0  0
   -5.4814   32.1761    9.0776 C   0  0  0  0  0  0  0  0  0  0  0  0
   -5.0901   30.9177    8.6131 C   0  0  0  0  0  0  0  0  0  0  0  0
   -3.7539   30.5440    8.5581 C   0  0  0  0  0  0  0  0  0  0  0  0
   -3.4281   29.3217    8.1016 N   0  0  0  0  0  0  0  0  0  0  0  0
   -2.1277   28.9646    8.0469 C   0  0  0  0  0  0  0  0  0  0  0  0
    1.3726   29.0440    8.5090 N   0  0  0  0  0  0  0  0  0  0  0  0
    0.2625   29.3855    8.5028 C   0  0  0  0  0  0  0  0  0  0  0  0
   -1.8619   27.6061    6.0717 C   0  0  0  0  0  0  0  0  0  0  0  0
   -3.1342   26.9881    5.4621 C   0  0  0  0  0  0  0  0  0  0  0  0
   -2.6863   25.7418    4.6858 C   0  0  0  0  0  0  0  0  0  0  0  0
   -1.2187   26.0220    4.3654 C   0  0  0  0  0  0  0  0  0  0  0  0
   -0.7105   26.6677    5.6455 C   0  0  0  0  0  0  0  0  0  0  0  0
    0.4936   27.3787    5.3993 O   0  0  0  0  0  0  0  0  0  0  0  0
    0.6864   27.8958    6.2052 H   0  0  0  0  0  0  0  0  0  0  0  0
   -3.5554   25.4869    3.4543 C   0  0  0  0  0  0  0  0  0  0  0  0
   -4.3906   24.3105    3.5837 N   0  0  0  0  0  0  0  0  0  0  0  0
   -5.3073   24.0763    4.5691 C   0  0  0  0  0  0  0  0  0  0  0  0
   -5.8627   22.8594    4.2526 C   0  0  0  0  0  0  0  0  0  0  0  0
   -5.3071   22.3562    3.1044 N   0  0  0  0  0  0  0  0  0  0  0  0
   -4.4277   23.2538    2.7205 C   0  0  0  0  0  0  0  0  0  0  0  0
 13 14  3  0  0  0
 14  3  1  0  0  0
  3  4  2  0  0  0
  4  5  1  0  0  0
  5  6  2  0  0  0
  6  7  1  0  0  0
  7  8  2  0  0  0
  8  9  1  0  0  0
  9 10  2  0  0  0
 10 11  1  0  0  0
 11 12  2  0  0  0
 12  1  1  0  0  0
  1 15  1  0  0  0
 15 16  1  0  0  0
 16 17  1  0  0  0
 17 22  1  0  0  0
 22 23  1  0  0  0
 23 24  1  0  0  0
 24 25  2  0  0  0
 25 26  1  0  0  0
 26 27  2  0  0  0
 17 18  1  0  0  0
 18 19  1  0  0  0
 19 20  1  0  0  0
 12  3  1  0  0  0
 19 15  1  0  0  0
 10  5  1  0  0  0
 27 23  1  0  0  0
  1  2  1  0  0  0
 20 21  1  0  0  0
M  END
> <minimizedAffinity>
-8.98468

$$$$
OCNT-2316044


 25 27  0  0  0  0  0  0  0  0999 V2000
   -4.0179   27.7873    6.7971 N   0  0  0  0  0  0  0  0  0  0  0  0
   -4.5915   27.7663    5.5409 C   0  0  0  0  0  0  0  0  0  0  0  0
   -5.0457   28.7552    4.9650 O   0  0  0  0  0  0  0  0  0  0  0  0
   -3.9636   26.8893    7.2798 H   0  0  0  0  0  0  0  0  0  0  0  0
   -6.1987   29.5360    8.2067 C   0  0  0  0  0  0  0  0  0  0  0  0
   -4.7020   29.5912    8.3403 C   0  0  0  0  0  0  0  0  0  0  0  0
   -3.8021   28.8496    7.6606 C   0  0  0  0  0  0  0  0  0  0  0  0
   -2.3246   29.2077    7.7784 C   0  0  0  0  0  0  0  0  0  0  0  0
   -1.5168   28.5727    7.0950 O   0  0  0  0  0  0  0  0  0  0  0  0
   -1.9836   30.2300    8.6539 N   0  0  0  0  0  0  0  0  0  0  0  0
   -0.5857   30.5905    8.8287 C   0  0  0  0  0  0  0  0  0  0  0  0
   -2.9360   30.9081    9.3827 C   0  0  0  0  0  0  0  0  0  0  0  0
   -4.2359   30.6250    9.2543 C   0  0  0  0  0  0  0  0  0  0  0  0
   -4.6515   26.3450    4.9316 C   0  0  0  0  0  0  0  0  0  0  0  0
   -4.6270   26.2347    3.3918 C   0  0  0  0  0  0  0  0  0  0  0  0
   -5.6863   25.2620    3.5358 N   0  0  0  0  0  0  0  0  0  0  0  0
   -6.1619   24.2314    2.7775 C   0  0  0  0  0  0  0  0  0  0  0  0
   -7.0292   23.4699    3.2016 O   0  0  0  0  0  0  0  0  0  0  0  0
   -6.0306   25.6604    4.8854 C   0  0  0  0  0  0  0  0  0  0  0  0
   -5.5440   24.0936    1.3817 C   0  0  0  0  0  0  0  0  0  0  0  0
   -5.9166   25.2874    0.4805 C   0  0  0  0  0  0  0  0  0  0  0  0
   -6.8174   24.9212   -0.6996 C   0  0  0  0  0  0  0  0  0  0  0  0
   -7.9063   23.9502   -0.2727 C   0  0  0  0  0  0  0  0  0  0  0  0
   -7.3255   22.6318    0.2320 C   0  0  0  0  0  0  0  0  0  0  0  0
   -5.8850   22.7433    0.7373 C   0  0  0  0  0  0  0  0  0  0  0  0
  5  6  1  0  0  0
  6  7  2  0  0  0
  7  1  1  0  0  0
  1  2  1  0  0  0
  2  3  2  0  0  0
  2 14  1  0  0  0
 14 15  1  0  0  0
 15 16  1  0  0  0
 16 17  1  0  0  0
 17 18  2  0  0  0
 17 20  1  0  0  0
 20 21  1  0  0  0
 21 22  1  0  0  0
 22 23  1  0  0  0
 23 24  1  0  0  0
 24 25  1  0  0  0
 16 19  1  0  0  0
  7  8  1  0  0  0
  8  9  2  0  0  0
  8 10  1  0  0  0
 10 11  1  0  0  0
 10 12  1  0  0  0
 12 13  2  0  0  0
 13  6  1  0  0  0
 19 14  1  0  0  0
 25 20  1  0  0  0
  1  4  1  0  0  0
M  END
> <minimizedAffinity>
-9.59151

$$$$
OCNT-2316070


 22 24  0  0  0  0  0  0  0  0999 V2000
   -7.5572   22.0076    3.4508 C   0  0  0  0  0  0  0  0  0  0  0  0
   -6.8796   20.9006    2.9362 C   0  0  0  0  0  0  0  0  0  0  0  0
   -5.9549   21.0772    1.9092 C   0  0  0  0  0  0  0  0  0  0  0  0
   -5.7220   22.3527    1.3880 C   0  0  0  0  0  0  0  0  0  0  0  0
   -6.4236   23.4689    1.8745 C   0  0  0  0  0  0  0  0  0  0  0  0
   -7.3479   23.2846    2.9140 C   0  0  0  0  0  0  0  0  0  0  0  0
   -8.1659   22.0616    5.8522 N   0  0  0  0  0  0  0  0  0  0  0  0
   -6.7678   22.2477    6.2376 C   0  0  0  0  0  0  0  0  0  0  0  0
   -8.5483   21.8018    4.5304 C   0  0  0  0  0  0  0  0  0  0  0  0
   -9.6624   21.4182    4.1883 O   0  0  0  0  0  0  0  0  0  0  0  0
   -9.8010   23.0124    8.7864 C   0  0  0  0  0  0  0  0  0  0  0  0
   -8.6071   22.0924    8.4175 C   0  0  0  0  0  0  0  0  0  0  0  0
   -9.1536   22.0910    6.9739 C   0  0  0  0  0  0  0  0  0  0  0  0
   -9.8287   23.4411    7.2952 C   0  0  0  0  0  0  0  0  0  0  0  0
  -10.5996   24.3907   10.6153 C   0  0  0  0  0  0  0  0  0  0  0  0
   -9.5210   24.0338    9.7644 O   0  0  0  0  0  0  0  0  0  0  0  0
   -6.1854   24.8437    1.3002 C   0  0  0  0  0  0  0  0  0  0  0  0
   -5.3067   25.6454    2.1339 N   0  0  0  0  0  0  0  0  0  0  0  0
   -3.9638   25.4549    2.3139 C   0  0  0  0  0  0  0  0  0  0  0  0
   -3.5899   26.4153    3.2248 C   0  0  0  0  0  0  0  0  0  0  0  0
   -4.6682   27.1702    3.6060 N   0  0  0  0  0  0  0  0  0  0  0  0
   -5.6877   26.6862    2.9325 C   0  0  0  0  0  0  0  0  0  0  0  0
 15 16  1  0  0  0
 16 11  1  0  0  0
 11 12  1  0  0  0
 12 13  1  0  0  0
 13  7  1  0  0  0
  7  8  1  0  0  0
  7  9  1  0  0  0
  9 10  2  0  0  0
  9  1  1  0  0  0
  1  2  1  0  0  0
  2  3  2  0  0  0
  3  4  1  0  0  0
  4  5  2  0  0  0
  5 17  1  0  0  0
 17 18  1  0  0  0
 18 19  1  0  0  0
 19 20  2  0  0  0
 20 21  1  0  0  0
 21 22  2  0  0  0
  5  6  1  0  0  0
 13 14  1  0  0  0
 14 11  1  0  0  0
  6  1  2  0  0  0
 22 18  1  0  0  0
M  END
> <minimizedAffinity>
-7.34811

$$$$
OCNT-2316072


 28 31  0  0  0  0  0  0  0  0999 V2000
   -6.4275   28.9295    6.4852 C   0  0  0  0  0  0  0  0  0  0  0  0
   -7.3401   29.7455    6.5441 O   0  0  0  0  0  0  0  0  0  0  0  0
   -5.5965   28.6291    7.5425 N   0  0  0  0  0  0  0  0  0  0  0  0
   -5.0467   27.7831    7.5082 H   0  0  0  0  0  0  0  0  0  0  0  0
   -5.5084   23.5045    1.9764 O   0  0  0  0  0  0  0  0  0  0  0  0
   -5.6400   24.5823    2.5367 C   0  0  0  0  0  0  0  0  0  0  0  0
   -5.8480   24.7472    3.8861 N   0  0  0  0  0  0  0  0  0  0  0  0
   -5.9446   26.0854    4.1330 C   0  0  0  0  0  0  0  0  0  0  0  0
   -6.1534   26.7672    5.3076 C   0  0  0  0  0  0  0  0  0  0  0  0
   -6.1983   28.1677    5.2260 C   0  0  0  0  0  0  0  0  0  0  0  0
   -6.0574   28.8200    3.9752 C   0  0  0  0  0  0  0  0  0  0  0  0
   -5.8460   28.0844    2.8012 C   0  0  0  0  0  0  0  0  0  0  0  0
   -5.7910   26.7129    2.9151 C   0  0  0  0  0  0  0  0  0  0  0  0
   -5.5954   25.8179    1.8763 O   0  0  0  0  0  0  0  0  0  0  0  0
   -5.9191   23.9847    4.5399 H   0  0  0  0  0  0  0  0  0  0  0  0
   -5.8082   29.2062    8.8523 C   0  0  0  0  0  0  0  0  0  0  0  0
   -4.9833   30.4554    9.0272 C   0  0  0  0  0  0  0  0  0  0  0  0
   -5.5821   31.7210    9.0039 C   0  0  0  0  0  0  0  0  0  0  0  0
   -4.8064   32.8707    9.1513 C   0  0  0  0  0  0  0  0  0  0  0  0
   -3.4246   32.7690    9.3149 C   0  0  0  0  0  0  0  0  0  0  0  0
   -2.8011   31.5141    9.3265 C   0  0  0  0  0  0  0  0  0  0  0  0
   -3.5917   30.3638    9.1824 C   0  0  0  0  0  0  0  0  0  0  0  0
   -1.3107   31.3947    9.5145 C   0  0  0  0  0  0  0  0  0  0  0  0
   -0.7238   30.4848    8.5480 N   0  0  0  0  0  0  0  0  0  0  0  0
   -0.9461   30.4762    7.1984 C   0  0  0  0  0  0  0  0  0  0  0  0
   -0.1320   29.4796    6.7125 C   0  0  0  0  0  0  0  0  0  0  0  0
    0.5841   28.8973    7.7265 N   0  0  0  0  0  0  0  0  0  0  0  0
    0.2063   29.5218    8.8193 C   0  0  0  0  0  0  0  0  0  0  0  0
  5  6  2  0  0  0
  6  7  1  0  0  0
  7  8  1  0  0  0
  8  9  1  0  0  0
  9 10  2  0  0  0
 10  1  1  0  0  0
  1  2  2  0  0  0
  1  3  1  0  0  0
  3 16  1  0  0  0
 16 17  1  0  0  0
 17 18  1  0  0  0
 18 19  2  0  0  0
 19 20  1  0  0  0
 20 21  2  0  0  0
 21 23  1  0  0  0
 23 24  1  0  0  0
 24 25  1  0  0  0
 25 26  2  0  0  0
 26 27  1  0  0  0
 27 28  2  0  0  0
 21 22  1  0  0  0
 10 11  1  0  0  0
 11 12  2  0  0  0
 12 13  1  0  0  0
 13 14  1  0  0  0
 14  6  1  0  0  0
 13  8  2  0  0  0
 22 17  2  0  0  0
 28 24  1  0  0  0
  7 15  1  0  0  0
  3  4  1  0  0  0
M  END
> <minimizedAffinity>
-9.94302

$$$$
OCNT-2316082


 23 26  0  0  0  0  0  0  0  0999 V2000
   -5.8199   29.5708    6.8600 S   0  0  0  0  0  0  0  0  0  0  0  0
   -6.9462   30.4737    6.7440 O   0  0  0  0  0  0  0  0  0  0  0  0
   -5.7026   28.7070    8.0193 O   0  0  0  0  0  0  0  0  0  0  0  0
   -2.2619   31.9498   10.1678 C   0  0  0  0  0  0  0  0  0  0  0  0
   -2.7272   31.6333    8.8196 N   0  0  0  0  0  0  0  0  0  0  0  0
   -4.0331   32.2017    8.4536 C   0  0  0  0  0  0  0  0  0  0  0  0
   -4.4155   31.9046    7.0042 C   0  0  0  0  0  0  0  0  0  0  0  0
   -4.3597   30.4472    6.7217 N   0  0  0  0  0  0  0  0  0  0  0  0
   -3.1499   29.8080    7.2040 C   0  0  0  0  0  0  0  0  0  0  0  0
   -2.7121   28.6040    6.6473 C   0  0  0  0  0  0  0  0  0  0  0  0
   -1.6213   27.9206    7.0622 N   0  0  0  0  0  0  0  0  0  0  0  0
   -0.9191   28.4781    8.0636 C   0  0  0  0  0  0  0  0  0  0  0  0
   -1.2558   29.6805    8.6714 C   0  0  0  0  0  0  0  0  0  0  0  0
   -2.3975   30.3842    8.2585 C   0  0  0  0  0  0  0  0  0  0  0  0
   -5.8575   28.5169    5.4246 C   0  0  0  0  0  0  0  0  0  0  0  0
   -5.8163   27.1323    5.5802 C   0  0  0  0  0  0  0  0  0  0  0  0
   -5.8284   26.3111    4.4484 C   0  0  0  0  0  0  0  0  0  0  0  0
   -5.8588   26.8387    3.1429 C   0  0  0  0  0  0  0  0  0  0  0  0
   -5.8626   28.2420    3.0257 C   0  0  0  0  0  0  0  0  0  0  0  0
   -5.8529   29.0781    4.1476 C   0  0  0  0  0  0  0  0  0  0  0  0
   -5.8709   25.8968    1.9521 C   0  0  0  0  0  0  0  0  0  0  0  0
   -5.8055   24.4004    2.1398 C   0  0  0  0  0  0  0  0  0  0  0  0
   -4.6364   25.1307    1.5426 C   0  0  0  0  0  0  0  0  0  0  0  0
  4  5  1  0  0  0
  5  6  1  0  0  0
  6  7  1  0  0  0
  7  8  1  0  0  0
  8  1  1  0  0  0
  1  2  2  0  0  0
  1  3  2  0  0  0
  1 15  1  0  0  0
 15 16  1  0  0  0
 16 17  2  0  0  0
 17 18  1  0  0  0
 18 21  1  0  0  0
 21 22  1  0  0  0
 22 23  1  0  0  0
 18 19  2  0  0  0
 19 20  1  0  0  0
  8  9  1  0  0  0
  9 10  2  0  0  0
 10 11  1  0  0  0
 11 12  2  0  0  0
 12 13  1  0  0  0
 13 14  2  0  0  0
 14  5  1  0  0  0
 20 15  2  0  0  0
 14  9  1  0  0  0
 23 21  1  0  0  0
M  END
> <minimizedAffinity>
-8.80351

$$$$
OCNT-2316083


 22 24  0  0  0  0  0  0  0  0999 V2000
   -6.0430   28.2441    6.2012 C   0  0  0  0  0  0  0  0  0  0  0  0
   -7.1250   28.6054    6.8646 N   0  0  0  0  0  0  0  0  0  0  0  0
   -6.6949   29.3437    7.9470 N   0  0  0  0  0  0  0  0  0  0  0  0
   -5.3818   29.3973    7.8668 C   0  0  0  0  0  0  0  0  0  0  0  0
   -4.8984   28.7227    6.7792 O   0  0  0  0  0  0  0  0  0  0  0  0
   -5.5955   24.9506    1.4521 C   0  0  0  0  0  0  0  0  0  0  0  0
   -5.7308   25.8215    2.6660 C   0  0  0  0  0  0  0  0  0  0  0  0
   -5.6879   25.2664    3.9434 C   0  0  0  0  0  0  0  0  0  0  0  0
   -5.7892   26.0870    5.0688 C   0  0  0  0  0  0  0  0  0  0  0  0
   -5.9277   27.4844    4.9555 C   0  0  0  0  0  0  0  0  0  0  0  0
   -5.9336   28.0543    3.6626 C   0  0  0  0  0  0  0  0  0  0  0  0
   -6.0371   29.5369    3.4176 C   0  0  0  0  0  0  0  0  0  0  0  0
   -5.8407   27.2106    2.5361 C   0  0  0  0  0  0  0  0  0  0  0  0
   -4.3440   30.2087    8.9994 S   0  0  0  0  0  0  0  0  0  0  0  0
   -4.1141   31.8004    8.1502 C   0  0  0  0  0  0  0  0  0  0  0  0
   -2.6239   32.1304    8.0664 C   0  0  0  0  0  0  0  0  0  0  0  0
   -1.9088   31.3157    6.9865 C   0  0  0  0  0  0  0  0  0  0  0  0
   -0.8490   30.4742    7.4999 N   0  0  0  0  0  0  0  0  0  0  0  0
   -0.0790   29.6122    6.7707 C   0  0  0  0  0  0  0  0  0  0  0  0
    0.7661   29.0320    7.6876 C   0  0  0  0  0  0  0  0  0  0  0  0
    0.5193   29.5125    8.9475 N   0  0  0  0  0  0  0  0  0  0  0  0
   -0.4629   30.3736    8.8053 C   0  0  0  0  0  0  0  0  0  0  0  0
  6  7  1  0  0  0
  7  8  1  0  0  0
  8  9  2  0  0  0
  9 10  1  0  0  0
 10  1  1  0  0  0
  1  2  2  0  0  0
  2  3  1  0  0  0
  3  4  2  0  0  0
  4 14  1  0  0  0
 14 15  1  0  0  0
 15 16  1  0  0  0
 16 17  1  0  0  0
 17 18  1  0  0  0
 18 19  1  0  0  0
 19 20  2  0  0  0
 20 21  1  0  0  0
 21 22  2  0  0  0
  4  5  1  0  0  0
 10 11  2  0  0  0
 11 12  1  0  0  0
 11 13  1  0  0  0
 13  7  2  0  0  0
  5  1  1  0  0  0
 22 18  1  0  0  0
M  END
> <minimizedAffinity>
-8.18607

$$$$
OCNT-2316089


 29 32  0  0  0  0  0  0  0  0999 V2000
   -3.9468   25.3081    3.2595 C   0  0  0  0  0  0  0  0  0  0  0  0
   -4.4315   26.0820    2.1964 C   0  0  0  0  0  0  0  0  0  0  0  0
   -5.4865   25.6287    1.3978 C   0  0  0  0  0  0  0  0  0  0  0  0
   -6.0790   24.3831    1.6349 C   0  0  0  0  0  0  0  0  0  0  0  0
   -7.0706   23.9818    0.7281 N   0  0  0  0  0  0  0  0  0  0  0  0
   -7.4062   22.6973    0.3875 C   0  0  0  0  0  0  0  0  0  0  0  0
   -8.2732   22.5104   -0.4681 O   0  0  0  0  0  0  0  0  0  0  0  0
   -6.5985   21.5642    0.9959 C   0  0  0  0  0  0  0  0  0  0  0  0
   -6.8337   21.4759    2.4315 N   0  0  0  0  0  0  0  0  0  0  0  0
   -6.4032   22.4176    3.2015 C   0  0  0  0  0  0  0  0  0  0  0  0
   -5.6612   23.6312    2.7410 C   0  0  0  0  0  0  0  0  0  0  0  0
   -4.5811   24.0836    3.5214 C   0  0  0  0  0  0  0  0  0  0  0  0
   -7.4906   24.6695    0.1155 H   0  0  0  0  0  0  0  0  0  0  0  0
   -0.4221   26.1137    4.3949 C   0  0  0  0  0  0  0  0  0  0  0  0
   -0.6472   26.6750    5.6541 C   0  0  0  0  0  0  0  0  0  0  0  0
   -1.9484   26.7934    6.1430 C   0  0  0  0  0  0  0  0  0  0  0  0
   -3.0231   26.3488    5.3691 C   0  0  0  0  0  0  0  0  0  0  0  0
   -4.2946   26.4595    5.8650 O   0  0  0  0  0  0  0  0  0  0  0  0
   -2.8281   25.7790    4.0970 C   0  0  0  0  0  0  0  0  0  0  0  0
   -1.5059   25.6702    3.6256 C   0  0  0  0  0  0  0  0  0  0  0  0
   -4.2632   26.8327    6.7611 H   0  0  0  0  0  0  0  0  0  0  0  0
    1.9951   25.8970    3.4786 N   0  0  0  0  0  0  0  0  0  0  0  0
    0.9139   25.9932    3.8888 C   0  0  0  0  0  0  0  0  0  0  0  0
   -6.6962   22.2734    4.6647 C   0  0  0  0  0  0  0  0  0  0  0  0
   -8.0210   22.3770    5.1051 C   0  0  0  0  0  0  0  0  0  0  0  0
   -8.3192   22.2498    6.4626 C   0  0  0  0  0  0  0  0  0  0  0  0
   -7.2953   22.0301    7.3838 C   0  0  0  0  0  0  0  0  0  0  0  0
   -5.9714   21.9460    6.9521 C   0  0  0  0  0  0  0  0  0  0  0  0
   -5.6683   22.0729    5.5950 C   0  0  0  0  0  0  0  0  0  0  0  0
 22 23  3  0  0  0
 23 14  1  0  0  0
 14 15  1  0  0  0
 15 16  2  0  0  0
 16 17  1  0  0  0
 17 18  1  0  0  0
 17 19  2  0  0  0
 19  1  1  0  0  0
  1  2  1  0  0  0
  2  3  2  0  0  0
  3  4  1  0  0  0
  4  5  1  0  0  0
  5  6  1  0  0  0
  6  7  2  0  0  0
  6  8  1  0  0  0
  8  9  1  0  0  0
  9 10  2  0  0  0
 10 24  1  0  0  0
 24 25  2  0  0  0
 25 26  1  0  0  0
 26 27  2  0  0  0
 27 28  1  0  0  0
 28 29  2  0  0  0
 10 11  1  0  0  0
 11 12  1  0  0  0
 19 20  1  0  0  0
 20 14  2  0  0  0
 12  1  2  0  0  0
 11  4  2  0  0  0
 29 24  1  0  0  0
 18 21  1  0  0  0
  5 13  1  0  0  0
M  END
> <minimizedAffinity>
-10.63259

$$$$
OCNT-2316100


 25 28  0  0  0  0  0  0  0  0999 V2000
   -2.6283   27.9173    6.8595 C   0  0  0  0  0  0  0  0  0  0  0  0
   -1.9535   26.7658    6.9995 N   0  0  0  0  0  0  0  0  0  0  0  0
   -2.4279   25.9826    5.9506 O   0  0  0  0  0  0  0  0  0  0  0  0
   -3.3576   26.7306    5.2778 C   0  0  0  0  0  0  0  0  0  0  0  0
   -3.5096   27.9227    5.8023 N   0  0  0  0  0  0  0  0  0  0  0  0
   -3.4096   30.9499    8.9749 C   0  0  0  0  0  0  0  0  0  0  0  0
   -2.1329   31.2840    9.4250 C   0  0  0  0  0  0  0  0  0  0  0  0
   -1.0396   30.5208    9.0371 C   0  0  0  0  0  0  0  0  0  0  0  0
    0.1827   30.8501    9.4751 F   0  0  0  0  0  0  0  0  0  0  0  0
   -1.1913   29.4216    8.2020 C   0  0  0  0  0  0  0  0  0  0  0  0
   -2.4647   29.0706    7.7384 C   0  0  0  0  0  0  0  0  0  0  0  0
   -3.5727   29.8451    8.1330 C   0  0  0  0  0  0  0  0  0  0  0  0
   -4.2847   33.1585    9.1233 C   0  0  0  0  0  0  0  0  0  0  0  0
   -4.4056   31.7730    9.4230 O   0  0  0  0  0  0  0  0  0  0  0  0
   -3.9770   26.1888    4.1935 N   0  0  0  0  0  0  0  0  0  0  0  0
   -4.8189   27.0685    3.3803 C   0  0  0  0  0  0  0  0  0  0  0  0
   -5.7546   26.2433    2.5009 C   0  0  0  0  0  0  0  0  0  0  0  0
   -4.9699   25.2260    1.6669 C   0  0  0  0  0  0  0  0  0  0  0  0
   -4.1243   24.3389    2.5852 C   0  0  0  0  0  0  0  0  0  0  0  0
   -3.2028   25.1839    3.4600 C   0  0  0  0  0  0  0  0  0  0  0  0
   -5.8813   24.4107    0.8193 C   0  0  0  0  0  0  0  0  0  0  0  0
   -6.7397   24.6678   -0.2266 C   0  0  0  0  0  0  0  0  0  0  0  0
   -7.3404   23.5058   -0.6376 N   0  0  0  0  0  0  0  0  0  0  0  0
   -6.8319   22.5978    0.1635 C   0  0  0  0  0  0  0  0  0  0  0  0
   -5.9373   23.0673    1.0760 O   0  0  0  0  0  0  0  0  0  0  0  0
 13 14  1  0  0  0
 14  6  1  0  0  0
  6  7  1  0  0  0
  7  8  2  0  0  0
  8  9  1  0  0  0
  8 10  1  0  0  0
 10 11  2  0  0  0
 11  1  1  0  0  0
  1  2  2  0  0  0
  2  3  1  0  0  0
  3  4  1  0  0  0
  4 15  1  0  0  0
 15 16  1  0  0  0
 16 17  1  0  0  0
 17 18  1  0  0  0
 18 21  1  0  0  0
 21 22  2  0  0  0
 22 23  1  0  0  0
 23 24  2  0  0  0
 24 25  1  0  0  0
 18 19  1  0  0  0
 19 20  1  0  0  0
  4  5  2  0  0  0
 11 12  1  0  0  0
 12  6  2  0  0  0
  5  1  1  0  0  0
 20 15  1  0  0  0
 25 21  1  0  0  0
M  END
> <minimizedAffinity>
-9.30244

$$$$
OCNT-2316109


 22 25  0  0  0  0  0  0  0  0999 V2000
   -5.2678   25.9502    3.7429 N   0  0  0  0  0  0  0  0  0  0  0  0
   -3.9470   26.1135    4.0982 C   0  0  0  0  0  0  0  0  0  0  0  0
   -3.9728   26.9575    5.1860 C   0  0  0  0  0  0  0  0  0  0  0  0
   -5.2728   27.2813    5.4626 N   0  0  0  0  0  0  0  0  0  0  0  0
   -6.0513   26.6672    4.5839 N   0  0  0  0  0  0  0  0  0  0  0  0
   -2.8397   27.4532    5.9504 C   0  0  0  0  0  0  0  0  0  0  0  0
   -1.5841   26.8329    5.9070 C   0  0  0  0  0  0  0  0  0  0  0  0
   -0.5136   27.3350    6.6548 C   0  0  0  0  0  0  0  0  0  0  0  0
   -0.6794   28.4713    7.4632 C   0  0  0  0  0  0  0  0  0  0  0  0
    0.3531   29.0168    8.2310 C   0  0  0  0  0  0  0  0  0  0  0  0
    0.2283   30.1091    9.0199 N   0  0  0  0  0  0  0  0  0  0  0  0
   -0.9869   30.6933    9.0498 C   0  0  0  0  0  0  0  0  0  0  0  0
   -2.0809   30.2390    8.3302 C   0  0  0  0  0  0  0  0  0  0  0  0
   -1.9328   29.1071    7.5192 C   0  0  0  0  0  0  0  0  0  0  0  0
   -2.9991   28.5897    6.7612 C   0  0  0  0  0  0  0  0  0  0  0  0
   -7.5885   22.6724   -0.6330 Cl  0  0  0  0  0  0  0  0  0  0  0  0
   -6.9155   23.6244    0.6316 C   0  0  0  0  0  0  0  0  0  0  0  0
   -6.3528   24.8655    0.3394 C   0  0  0  0  0  0  0  0  0  0  0  0
   -5.8034   25.6458    1.3631 C   0  0  0  0  0  0  0  0  0  0  0  0
   -5.8186   25.1785    2.6855 C   0  0  0  0  0  0  0  0  0  0  0  0
   -6.3884   23.9259    2.9686 C   0  0  0  0  0  0  0  0  0  0  0  0
   -6.9355   23.1518    1.9411 C   0  0  0  0  0  0  0  0  0  0  0  0
 16 17  1  0  0  0
 17 18  1  0  0  0
 18 19  2  0  0  0
 19 20  1  0  0  0
 20  1  1  0  0  0
  1  2  1  0  0  0
  2  3  2  0  0  0
  3  6  1  0  0  0
  6  7  1  0  0  0
  7  8  2  0  0  0
  8  9  1  0  0  0
  9 10  2  0  0  0
 10 11  1  0  0  0
 11 12  2  0  0  0
 12 13  1  0  0  0
 13 14  2  0  0  0
 14 15  1  0  0  0
  3  4  1  0  0  0
  4  5  2  0  0  0
 20 21  2  0  0  0
 21 22  1  0  0  0
 22 17  2  0  0  0
  5  1  1  0  0  0
 15  6  2  0  0  0
 14  9  1  0  0  0
M  END
> <minimizedAffinity>
-9.21687

$$$$
OCNT-2316119


 30 33  0  0  0  0  0  0  0  0999 V2000
   -4.3503   26.9105    5.6060 N   0  0  0  0  0  0  0  0  0  0  0  0
   -4.5602   27.4069    6.4618 H   0  0  0  0  0  0  0  0  0  0  0  0
   -2.9777   26.7473    5.4561 C   0  0  0  0  0  0  0  0  0  0  0  0
   -2.4835   25.8137    4.6069 N   0  0  0  0  0  0  0  0  0  0  0  0
   -1.1512   25.6937    4.4558 C   0  0  0  0  0  0  0  0  0  0  0  0
   -0.1877   26.3971    5.0648 N   0  0  0  0  0  0  0  0  0  0  0  0
   -0.7061   27.2907    5.9170 C   0  0  0  0  0  0  0  0  0  0  0  0
   -2.0468   27.5238    6.1829 C   0  0  0  0  0  0  0  0  0  0  0  0
   -2.0899   28.5510    7.1892 C   0  0  0  0  0  0  0  0  0  0  0  0
   -3.1220   29.2022    7.9046 C   0  0  0  0  0  0  0  0  0  0  0  0
   -2.8006   30.1939    8.8401 C   0  0  0  0  0  0  0  0  0  0  0  0
   -1.4758   30.5349    9.0703 C   0  0  0  0  0  0  0  0  0  0  0  0
   -1.1935   31.4861    9.9707 F   0  0  0  0  0  0  0  0  0  0  0  0
   -0.4296   29.9106    8.3959 C   0  0  0  0  0  0  0  0  0  0  0  0
   -0.7668   28.9204    7.4651 C   0  0  0  0  0  0  0  0  0  0  0  0
    0.0437   28.1394    6.6767 N   0  0  0  0  0  0  0  0  0  0  0  0
    1.0520   28.1656    6.6557 H   0  0  0  0  0  0  0  0  0  0  0  0
   -5.2111   27.3425    4.4974 C   0  0  0  0  0  0  0  0  0  0  0  0
   -5.6356   26.1469    3.6478 C   0  0  0  0  0  0  0  0  0  0  0  0
   -6.1304   24.9906    4.2823 C   0  0  0  0  0  0  0  0  0  0  0  0
   -6.5501   23.8828    3.5382 C   0  0  0  0  0  0  0  0  0  0  0  0
   -6.4863   23.9186    2.1470 C   0  0  0  0  0  0  0  0  0  0  0  0
   -7.0068   22.5519    1.2393 Cl  0  0  0  0  0  0  0  0  0  0  0  0
   -6.0061   25.0575    1.5082 C   0  0  0  0  0  0  0  0  0  0  0  0
   -5.9418   25.1161    0.1694 F   0  0  0  0  0  0  0  0  0  0  0  0
   -5.5844   26.1628    2.2455 C   0  0  0  0  0  0  0  0  0  0  0  0
   -6.3349   28.3067    4.9219 C   0  0  0  0  0  0  0  0  0  0  0  0
   -5.8203   29.6203    2.9625 O   0  0  0  0  0  0  0  0  0  0  0  0
   -6.1600   29.7046    4.3424 C   0  0  0  0  0  0  0  0  0  0  0  0
   -5.7259   30.5348    2.6431 H   0  0  0  0  0  0  0  0  0  0  0  0
 28 29  1  0  0  0
 29 27  1  0  0  0
 27 18  1  0  0  0
 18  1  1  0  0  0
  1  3  1  0  0  0
  3  4  1  0  0  0
  4  5  2  0  0  0
  5  6  1  0  0  0
  6  7  2  0  0  0
  7  8  1  0  0  0
  8  9  1  0  0  0
  9 10  2  0  0  0
 10 11  1  0  0  0
 11 12  2  0  0  0
 12 13  1  0  0  0
 12 14  1  0  0  0
 14 15  2  0  0  0
 15 16  1  0  0  0
 18 19  1  0  0  0
 19 20  1  0  0  0
 20 21  2  0  0  0
 21 22  1  0  0  0
 22 23  1  0  0  0
 22 24  2  0  0  0
 24 25  1  0  0  0
 24 26  1  0  0  0
  8  3  2  0  0  0
 15  9  1  0  0  0
 26 19  2  0  0  0
 16  7  1  0  0  0
 28 30  1  0  0  0
  1  2  1  0  0  0
 16 17  1  0  0  0
M  END
> <minimizedAffinity>
-10.25913

$$$$
OCNT-2316120


 24 27  0  0  0  0  0  0  0  0999 V2000
   -3.7967   26.2579    3.4501 C   0  0  0  0  0  0  0  0  0  0  0  0
   -5.8823   21.0834    1.6363 C   0  0  0  0  0  0  0  0  0  0  0  0
   -6.2150   22.4289    1.0536 C   0  0  0  0  0  0  0  0  0  0  0  0
   -7.1111   22.4873   -0.0340 C   0  0  0  0  0  0  0  0  0  0  0  0
   -7.4650   23.6983   -0.6261 C   0  0  0  0  0  0  0  0  0  0  0  0
   -6.9414   24.9035   -0.1592 C   0  0  0  0  0  0  0  0  0  0  0  0
   -6.0540   24.8463    0.9200 C   0  0  0  0  0  0  0  0  0  0  0  0
   -5.6785   23.6495    1.5326 C   0  0  0  0  0  0  0  0  0  0  0  0
   -4.7683   23.9937    2.5765 C   0  0  0  0  0  0  0  0  0  0  0  0
   -4.6084   25.3643    2.5809 C   0  0  0  0  0  0  0  0  0  0  0  0
   -5.3980   25.8628    1.5733 N   0  0  0  0  0  0  0  0  0  0  0  0
   -5.4527   26.8437    1.3341 H   0  0  0  0  0  0  0  0  0  0  0  0
   -4.4952   27.5295    3.6137 N   0  0  0  0  0  0  0  0  0  0  0  0
   -3.8365   28.2860    3.4231 H   0  0  0  0  0  0  0  0  0  0  0  0
   -5.0698   27.6975    4.9585 C   0  0  0  0  0  0  0  0  0  0  0  0
   -6.1660   28.7975    4.8728 C   0  0  0  0  0  0  0  0  0  0  0  0
   -6.9244   28.9783    6.2052 C   0  0  0  0  0  0  0  0  0  0  0  0
   -5.9785   29.0066    7.3463 C   0  0  0  0  0  0  0  0  0  0  0  0
   -4.6781   28.5688    7.2561 C   0  0  0  0  0  0  0  0  0  0  0  0
   -4.0024   28.0474    6.0429 C   0  0  0  0  0  0  0  0  0  0  0  0
   -4.1247   28.7354    8.4885 N   0  0  0  0  0  0  0  0  0  0  0  0
   -4.9910   29.2488    9.3823 N   0  0  0  0  0  0  0  0  0  0  0  0
   -6.1199   29.4134    8.6836 C   0  0  0  0  0  0  0  0  0  0  0  0
   -3.1798   28.5295    8.7963 H   0  0  0  0  0  0  0  0  0  0  0  0
  2  3  1  0  0  0
  3  4  1  0  0  0
  4  5  2  0  0  0
  5  6  1  0  0  0
  6  7  2  0  0  0
  7  8  1  0  0  0
  8  9  1  0  0  0
  9 10  2  0  0  0
 10  1  1  0  0  0
  1 13  1  0  0  0
 13 15  1  0  0  0
 15 16  1  0  0  0
 16 17  1  0  0  0
 17 18  1  0  0  0
 18 19  2  0  0  0
 19 20  1  0  0  0
 19 21  1  0  0  0
 21 22  1  0  0  0
 22 23  2  0  0  0
 10 11  1  0  0  0
  8  3  2  0  0  0
 20 15  1  0  0  0
 11  7  1  0  0  0
 23 18  1  0  0  0
 13 14  1  0  0  0
 21 24  1  0  0  0
 11 12  1  0  0  0
M  END
> <minimizedAffinity>
-9.26969

$$$$
OCNT-2316133


 27 30  0  0  0  0  0  0  0  0999 V2000
   -6.6916   23.5484    2.8160 C   0  0  0  0  0  0  0  0  0  0  0  0
   -7.0089   23.4888    1.6332 O   0  0  0  0  0  0  0  0  0  0  0  0
   -5.8697   24.5373    3.3441 N   0  0  0  0  0  0  0  0  0  0  0  0
   -5.4780   24.5932    4.7508 C   0  0  0  0  0  0  0  0  0  0  0  0
   -4.3048   25.5398    4.9868 C   0  0  0  0  0  0  0  0  0  0  0  0
   -4.5894   26.9634    4.4728 C   0  0  0  0  0  0  0  0  0  0  0  0
   -5.4145   26.9539    3.1730 C   0  0  0  0  0  0  0  0  0  0  0  0
   -5.3966   25.6013    2.4697 C   0  0  0  0  0  0  0  0  0  0  0  0
   -5.3181   27.7813    5.5451 C   0  0  0  0  0  0  0  0  0  0  0  0
   -6.5500   27.7981    5.5887 O   0  0  0  0  0  0  0  0  0  0  0  0
   -4.5534   28.5274    6.4275 N   0  0  0  0  0  0  0  0  0  0  0  0
   -5.2303   29.3082    7.4693 C   0  0  0  0  0  0  0  0  0  0  0  0
   -4.4393   29.2754    8.7807 C   0  0  0  0  0  0  0  0  0  0  0  0
   -3.0960   29.7662    8.6620 O   0  0  0  0  0  0  0  0  0  0  0  0
   -2.5585   29.6809    7.3374 C   0  0  0  0  0  0  0  0  0  0  0  0
   -3.0917   28.4852    6.5424 C   0  0  0  0  0  0  0  0  0  0  0  0
   -8.6819   22.5173    4.1431 C   0  0  0  0  0  0  0  0  0  0  0  0
   -8.1162   21.4244    3.2728 C   0  0  0  0  0  0  0  0  0  0  0  0
   -7.2059   22.5214    3.7643 C   0  0  0  0  0  0  0  0  0  0  0  0
   -9.8356   21.7053    8.2554 C   0  0  0  0  0  0  0  0  0  0  0  0
   -8.5772   22.2253    7.9580 C   0  0  0  0  0  0  0  0  0  0  0  0
   -8.2072   22.4842    6.6347 C   0  0  0  0  0  0  0  0  0  0  0  0
   -9.0817   22.2274    5.5698 C   0  0  0  0  0  0  0  0  0  0  0  0
  -10.3500   21.7204    5.8902 C   0  0  0  0  0  0  0  0  0  0  0  0
  -10.7257   21.4569    7.2142 C   0  0  0  0  0  0  0  0  0  0  0  0
   -9.3045   22.2609   10.5026 C   0  0  0  0  0  0  0  0  0  0  0  0
  -10.0707   21.4928    9.5853 O   0  0  0  0  0  0  0  0  0  0  0  0
 26 27  1  0  0  0
 27 20  1  0  0  0
 20 21  1  0  0  0
 21 22  2  0  0  0
 22 23  1  0  0  0
 23 17  1  0  0  0
 17 18  1  0  0  0
 18 19  1  0  0  0
 19  1  1  0  0  0
  1  2  2  0  0  0
  1  3  1  0  0  0
  3  4  1  0  0  0
  4  5  1  0  0  0
  5  6  1  0  0  0
  6  9  1  0  0  0
  9 10  2  0  0  0
  9 11  1  0  0  0
 11 12  1  0  0  0
 12 13  1  0  0  0
 13 14  1  0  0  0
 14 15  1  0  0  0
 15 16  1  0  0  0
  6  7  1  0  0  0
  7  8  1  0  0  0
 23 24  2  0  0  0
 24 25  1  0  0  0
 25 20  2  0  0  0
 19 17  1  0  0  0
  8  3  1  0  0  0
 16 11  1  0  0  0
M  END
> <minimizedAffinity>
-8.97805

$$$$
OCNT-2316136


 25 27  0  0  0  0  0  0  0  0999 V2000
   -4.2152   26.5499    3.6302 C   0  0  0  0  0  0  0  0  0  0  0  0
   -3.0064   26.1908    3.1723 N   0  0  0  0  0  0  0  0  0  0  0  0
   -2.1874   26.3137    4.2957 O   0  0  0  0  0  0  0  0  0  0  0  0
   -2.9857   26.7510    5.3127 C   0  0  0  0  0  0  0  0  0  0  0  0
   -4.2408   26.9242    4.9531 N   0  0  0  0  0  0  0  0  0  0  0  0
   -5.4174   26.5923    2.7589 C   0  0  0  0  0  0  0  0  0  0  0  0
   -5.9965   25.1888    0.1359 C   0  0  0  0  0  0  0  0  0  0  0  0
   -6.2248   24.5221    1.4660 C   0  0  0  0  0  0  0  0  0  0  0  0
   -6.7158   23.2049    1.4834 C   0  0  0  0  0  0  0  0  0  0  0  0
   -6.9393   22.5367    2.6877 C   0  0  0  0  0  0  0  0  0  0  0  0
   -6.6720   23.1800    3.8896 C   0  0  0  0  0  0  0  0  0  0  0  0
   -6.9775   22.2804    5.5239 Br  0  0  0  0  0  0  0  0  0  0  0  0
   -6.1813   24.4842    3.8971 C   0  0  0  0  0  0  0  0  0  0  0  0
   -5.9493   25.1749    2.6894 C   0  0  0  0  0  0  0  0  0  0  0  0
   -2.3403   26.9372    6.6406 C   0  0  0  0  0  0  0  0  0  0  0  0
   -2.2744   28.3585    6.9943 N   0  0  0  0  0  0  0  0  0  0  0  0
   -3.5325   29.0310    7.3188 C   0  0  0  0  0  0  0  0  0  0  0  0
   -3.5291   29.6287    8.7211 C   0  0  0  0  0  0  0  0  0  0  0  0
   -2.8022   30.9650    8.8182 C   0  0  0  0  0  0  0  0  0  0  0  0
   -1.3219   30.9010    8.4504 C   0  0  0  0  0  0  0  0  0  0  0  0
   -1.0297   30.5486    6.9920 C   0  0  0  0  0  0  0  0  0  0  0  0
   -1.8420   31.3123    6.1129 O   0  0  0  0  0  0  0  0  0  0  0  0
   -1.0941   29.0317    6.7273 C   0  0  0  0  0  0  0  0  0  0  0  0
   -0.1048   28.4502    6.2743 O   0  0  0  0  0  0  0  0  0  0  0  0
   -1.5317   31.1125    5.2107 H   0  0  0  0  0  0  0  0  0  0  0  0
  7  8  1  0  0  0
  8  9  1  0  0  0
  9 10  2  0  0  0
 10 11  1  0  0  0
 11 12  1  0  0  0
 11 13  2  0  0  0
 13 14  1  0  0  0
 14  6  1  0  0  0
  6  1  1  0  0  0
  1  2  2  0  0  0
  2  3  1  0  0  0
  3  4  1  0  0  0
  4 15  1  0  0  0
 15 16  1  0  0  0
 16 17  1  0  0  0
 17 18  1  0  0  0
 18 19  1  0  0  0
 19 20  1  0  0  0
 20 21  1  0  0  0
 21 22  1  0  0  0
 21 23  1  0  0  0
 23 24  2  0  0  0
  4  5  2  0  0  0
 14  8  2  0  0  0
  5  1  1  0  0  0
 23 16  1  0  0  0
 22 25  1  0  0  0
M  END
> <minimizedAffinity>
-9.14589

$$$$
OCNT-2316175


 26 28  0  0  0  0  0  0  0  0999 V2000
   -2.8992   27.9218    5.8537 N   0  0  0  0  0  0  0  0  0  0  0  0
   -1.9863   27.8552    6.8801 C   0  0  0  0  0  0  0  0  0  0  0  0
   -1.2750   26.8813    7.0997 O   0  0  0  0  0  0  0  0  0  0  0  0
   -3.6038   28.6498    5.8602 H   0  0  0  0  0  0  0  0  0  0  0  0
   -1.9555   29.0171    7.7748 C   0  0  0  0  0  0  0  0  0  0  0  0
   -0.7932   29.7411    8.0711 C   0  0  0  0  0  0  0  0  0  0  0  0
    0.7449   29.3189    7.4030 Cl  0  0  0  0  0  0  0  0  0  0  0  0
   -0.8342   30.8349    8.9450 C   0  0  0  0  0  0  0  0  0  0  0  0
   -2.0344   31.2373    9.5502 C   0  0  0  0  0  0  0  0  0  0  0  0
   -3.2092   30.5210    9.2636 C   0  0  0  0  0  0  0  0  0  0  0  0
   -3.1362   29.4377    8.3913 C   0  0  0  0  0  0  0  0  0  0  0  0
   -4.3776   28.8923    8.2298 O   0  0  0  0  0  0  0  0  0  0  0  0
   -5.2346   29.6026    9.0059 C   0  0  0  0  0  0  0  0  0  0  0  0
   -4.5701   30.6138    9.6591 C   0  0  0  0  0  0  0  0  0  0  0  0
   -3.1824   26.7733    5.0055 C   0  0  0  0  0  0  0  0  0  0  0  0
   -4.7569   24.9237    1.1644 C   0  0  0  0  0  0  0  0  0  0  0  0
   -4.8399   25.1498    2.6771 C   0  0  0  0  0  0  0  0  0  0  0  0
   -6.0786   24.4380    3.2743 C   0  0  0  0  0  0  0  0  0  0  0  0
   -6.3819   24.8401    4.6167 O   0  0  0  0  0  0  0  0  0  0  0  0
   -5.2251   25.3441    5.2946 C   0  0  0  0  0  0  0  0  0  0  0  0
   -4.6933   26.6557    4.6155 C   0  0  0  0  0  0  0  0  0  0  0  0
   -4.7422   26.5758    3.0887 N   0  0  0  0  0  0  0  0  0  0  0  0
   -5.8001   27.3929    2.4885 C   0  0  0  0  0  0  0  0  0  0  0  0
   -5.4858   27.8516    5.2447 C   0  0  0  0  0  0  0  0  0  0  0  0
   -6.2506   27.4689    6.3896 O   0  0  0  0  0  0  0  0  0  0  0  0
   -5.6435   27.5419    7.1622 H   0  0  0  0  0  0  0  0  0  0  0  0
 16 17  1  0  0  0
 17 18  1  0  0  0
 18 19  1  0  0  0
 19 20  1  0  0  0
 20 21  1  0  0  0
 21 24  1  0  0  0
 24 25  1  0  0  0
 21 15  1  0  0  0
 15  1  1  0  0  0
  1  2  1  0  0  0
  2  3  2  0  0  0
  2  5  1  0  0  0
  5  6  1  0  0  0
  6  7  1  0  0  0
  6  8  2  0  0  0
  8  9  1  0  0  0
  9 10  2  0  0  0
 10 11  1  0  0  0
 11 12  1  0  0  0
 12 13  1  0  0  0
 13 14  2  0  0  0
 21 22  1  0  0  0
 22 23  1  0  0  0
 22 17  1  0  0  0
 11  5  2  0  0  0
 14 10  1  0  0  0
 25 26  1  0  0  0
  1  4  1  0  0  0
M  END
> <minimizedAffinity>
-8.49513

$$$$
OCNT-2316176


 25 27  0  0  0  0  0  0  0  0999 V2000
   -3.7181   28.8776    6.9982 C   0  0  0  0  0  0  0  0  0  0  0  0
   -2.3859   29.1169    7.3063 C   0  0  0  0  0  0  0  0  0  0  0  0
   -1.7199   30.1170    8.1910 C   0  0  0  0  0  0  0  0  0  0  0  0
   -0.2734   29.7246    8.5104 C   0  0  0  0  0  0  0  0  0  0  0  0
    0.4660   29.2737    7.2491 C   0  0  0  0  0  0  0  0  0  0  0  0
   -0.2211   28.0609    6.6232 C   0  0  0  0  0  0  0  0  0  0  0  0
   -1.6631   28.2149    6.5819 N   0  0  0  0  0  0  0  0  0  0  0  0
   -2.4096   27.3870    5.8437 N   0  0  0  0  0  0  0  0  0  0  0  0
   -3.6701   27.8077    6.0492 C   0  0  0  0  0  0  0  0  0  0  0  0
   -4.8557   29.6046    7.5377 C   0  0  0  0  0  0  0  0  0  0  0  0
   -5.6796   29.0973    8.2923 O   0  0  0  0  0  0  0  0  0  0  0  0
   -5.3096   31.8376    8.0718 C   0  0  0  0  0  0  0  0  0  0  0  0
   -4.9431   30.8848    7.0752 O   0  0  0  0  0  0  0  0  0  0  0  0
   -4.8016   27.1546    5.3017 C   0  0  0  0  0  0  0  0  0  0  0  0
   -4.7756   27.5156    3.8782 N   0  0  0  0  0  0  0  0  0  0  0  0
   -6.1260   27.9477    3.5425 O   0  0  0  0  0  0  0  0  0  0  0  0
   -6.1630   29.3715    3.5465 C   0  0  0  0  0  0  0  0  0  0  0  0
   -4.4186   26.4459    2.9350 C   0  0  0  0  0  0  0  0  0  0  0  0
   -5.4222   25.4092    2.3582 C   0  0  0  0  0  0  0  0  0  0  0  0
   -5.7517   24.2228    3.2794 C   0  0  0  0  0  0  0  0  0  0  0  0
   -6.5705   23.1239    2.5891 C   0  0  0  0  0  0  0  0  0  0  0  0
   -7.2775   23.6157    1.3333 C   0  0  0  0  0  0  0  0  0  0  0  0
   -6.2802   24.1672    0.2998 C   0  0  0  0  0  0  0  0  0  0  0  0
   -7.0069   25.0663   -0.7023 C   0  0  0  0  0  0  0  0  0  0  0  0
   -5.0870   24.9021    0.9499 C   0  0  0  0  0  0  0  0  0  0  0  0
 12 13  1  0  0  0
 13 10  1  0  0  0
 10 11  2  0  0  0
 10  1  1  0  0  0
  1  2  2  0  0  0
  2  3  1  0  0  0
  3  4  1  0  0  0
  4  5  1  0  0  0
  5  6  1  0  0  0
  6  7  1  0  0  0
  7  8  1  0  0  0
  8  9  2  0  0  0
  9 14  1  0  0  0
 14 15  1  0  0  0
 15 18  1  0  0  0
 18 19  1  0  0  0
 19 20  1  0  0  0
 20 21  1  0  0  0
 21 22  1  0  0  0
 22 23  1  0  0  0
 23 24  1  0  0  0
 23 25  1  0  0  0
 15 16  1  0  0  0
 16 17  1  0  0  0
  9  1  1  0  0  0
 25 19  1  0  0  0
  7  2  1  0  0  0
M  END
> <minimizedAffinity>
-8.43003

$$$$
OCNT-2316179


 23 25  0  0  0  0  0  0  0  0999 V2000
   -3.5702   30.2736    8.5274 N   0  0  0  0  0  0  0  0  0  0  0  0
   -3.7852   31.3914    9.4650 C   0  0  0  0  0  0  0  0  0  0  0  0
   -2.4801   32.0463    9.9393 C   0  0  0  0  0  0  0  0  0  0  0  0
   -1.4176   32.0015    8.8484 C   0  0  0  0  0  0  0  0  0  0  0  0
   -1.1268   30.5456    8.3983 C   0  0  0  0  0  0  0  0  0  0  0  0
    0.2009   30.0334    9.0096 C   0  0  0  0  0  0  0  0  0  0  0  0
    0.6027   28.7741    8.2500 C   0  0  0  0  0  0  0  0  0  0  0  0
    0.1524   29.0916    6.5533 S   0  0  0  0  0  0  0  0  0  0  0  0
    1.3344   29.5205    5.8346 O   0  0  0  0  0  0  0  0  0  0  0  0
   -0.6798   28.0015    6.0885 O   0  0  0  0  0  0  0  0  0  0  0  0
   -0.8752   30.5211    6.8718 C   0  0  0  0  0  0  0  0  0  0  0  0
   -2.3008   29.5991    8.7867 C   0  0  0  0  0  0  0  0  0  0  0  0
   -4.6997   29.3291    8.5239 C   0  0  0  0  0  0  0  0  0  0  0  0
   -7.3503   30.7138    7.2573 C   0  0  0  0  0  0  0  0  0  0  0  0
   -6.4063   29.7808    6.5939 C   0  0  0  0  0  0  0  0  0  0  0  0
   -6.6088   29.4229    5.3233 N   0  0  0  0  0  0  0  0  0  0  0  0
   -5.5875   28.5912    5.0397 N   0  0  0  0  0  0  0  0  0  0  0  0
   -4.7488   28.3851    6.1071 C   0  0  0  0  0  0  0  0  0  0  0  0
   -3.5637   27.4907    6.0647 C   0  0  0  0  0  0  0  0  0  0  0  0
   -5.2434   29.1711    7.1390 C   0  0  0  0  0  0  0  0  0  0  0  0
   -5.4921   28.0173    3.6990 C   0  0  0  0  0  0  0  0  0  0  0  0
   -6.1329   28.9266    2.6495 C   0  0  0  0  0  0  0  0  0  0  0  0
   -6.0884   26.6108    3.6562 C   0  0  0  0  0  0  0  0  0  0  0  0
 14 15  1  0  0  0
 15 16  2  0  0  0
 16 17  1  0  0  0
 17 21  1  0  0  0
 21 22  1  0  0  0
 21 23  1  0  0  0
 17 18  1  0  0  0
 18 19  1  0  0  0
 18 20  2  0  0  0
 20 13  1  0  0  0
 13  1  1  0  0  0
  1  2  1  0  0  0
  2  3  1  0  0  0
  3  4  1  0  0  0
  4  5  1  0  0  0
  5  6  1  0  0  0
  6  7  1  0  0  0
  7  8  1  0  0  0
  8  9  2  0  0  0
  8 10  2  0  0  0
  8 11  1  0  0  0
  5 12  1  0  0  0
 20 15  1  0  0  0
 12  1  1  0  0  0
 11  5  1  0  0  0
M  END
> <minimizedAffinity>
-8.16257

$$$$
OCNT-2316180


 26 30  0  0  0  0  0  0  0  0999 V2000
   -4.8505   28.3154    4.2275 C   0  0  0  0  0  0  0  0  0  0  0  0
   -6.2102   29.0325    4.0464 C   0  0  0  0  0  0  0  0  0  0  0  0
   -6.4412   30.0659    5.1462 C   0  0  0  0  0  0  0  0  0  0  0  0
   -6.3652   29.4427    6.5439 C   0  0  0  0  0  0  0  0  0  0  0  0
   -5.7857   28.0293    6.5277 C   0  0  0  0  0  0  0  0  0  0  0  0
   -4.6225   27.9897    5.6545 N   0  0  0  0  0  0  0  0  0  0  0  0
   -5.0980   25.4784    1.9534 C   0  0  0  0  0  0  0  0  0  0  0  0
   -3.7295   25.5739    2.0871 C   0  0  0  0  0  0  0  0  0  0  0  0
   -3.5226   26.6235    2.9371 N   0  0  0  0  0  0  0  0  0  0  0  0
   -4.7467   27.1326    3.2962 C   0  0  0  0  0  0  0  0  0  0  0  0
   -5.7148   26.4553    2.7089 N   0  0  0  0  0  0  0  0  0  0  0  0
   -2.6369   26.9805    3.2795 H   0  0  0  0  0  0  0  0  0  0  0  0
   -7.2909   22.6801   -0.4145 C   0  0  0  0  0  0  0  0  0  0  0  0
   -7.3416   24.0422   -0.7004 C   0  0  0  0  0  0  0  0  0  0  0  0
   -6.6173   24.9471    0.0805 C   0  0  0  0  0  0  0  0  0  0  0  0
   -5.8339   24.5050    1.1577 C   0  0  0  0  0  0  0  0  0  0  0  0
   -5.7918   23.1300    1.4315 C   0  0  0  0  0  0  0  0  0  0  0  0
   -6.5164   22.2236    0.6499 C   0  0  0  0  0  0  0  0  0  0  0  0
   -3.3388   27.9437    6.1159 C   0  0  0  0  0  0  0  0  0  0  0  0
   -2.6543   29.0123    6.4806 N   0  0  0  0  0  0  0  0  0  0  0  0
   -1.3933   28.6304    6.9127 C   0  0  0  0  0  0  0  0  0  0  0  0
   -1.0412   27.3482    6.8805 N   0  0  0  0  0  0  0  0  0  0  0  0
   -2.3569   26.5191    6.2888 S   0  0  0  0  0  0  0  0  0  0  0  0
   -0.3822   29.7086    7.4145 C   0  0  0  0  0  0  0  0  0  0  0  0
    0.5878   29.3441    8.5101 C   0  0  0  0  0  0  0  0  0  0  0  0
   -0.5417   30.2918    8.7960 C   0  0  0  0  0  0  0  0  0  0  0  0
 13 14  2  0  0  0
 14 15  1  0  0  0
 15 16  2  0  0  0
 16  7  1  0  0  0
  7  8  2  0  0  0
  8  9  1  0  0  0
  9 10  1  0  0  0
 10  1  1  0  0  0
  1  2  1  0  0  0
  2  3  1  0  0  0
  3  4  1  0  0  0
  4  5  1  0  0  0
  5  6  1  0  0  0
  6 19  1  0  0  0
 19 20  2  0  0  0
 20 21  1  0  0  0
 21 24  1  0  0  0
 24 25  1  0  0  0
 25 26  1  0  0  0
 21 22  2  0  0  0
 22 23  1  0  0  0
 10 11  2  0  0  0
 16 17  1  0  0  0
 17 18  2  0  0  0
 18 13  1  0  0  0
 11  7  1  0  0  0
  6  1  1  0  0  0
 23 19  1  0  0  0
 26 24  1  0  0  0
  9 12  1  0  0  0
M  END
> <minimizedAffinity>
-9.85762

$$$$
OCNT-2316207


 23 25  0  0  0  0  0  0  0  0999 V2000
   -2.5603   28.0637    6.7895 C   0  0  0  0  0  0  0  0  0  0  0  0
   -2.6070   27.0505    5.6439 C   0  0  0  0  0  0  0  0  0  0  0  0
   -3.8635   28.2003    7.4803 N   0  0  0  0  0  0  0  0  0  0  0  0
   -3.6909   28.6605    8.3768 H   0  0  0  0  0  0  0  0  0  0  0  0
   -4.8683   28.9070    6.6838 C   0  0  0  0  0  0  0  0  0  0  0  0
   -5.8868   27.9035    6.0978 C   0  0  0  0  0  0  0  0  0  0  0  0
   -6.9822   28.9269    6.4667 C   0  0  0  0  0  0  0  0  0  0  0  0
   -6.0374   29.4120    7.6175 C   0  0  0  0  0  0  0  0  0  0  0  0
   -6.0011   30.9284    7.8695 C   0  0  0  0  0  0  0  0  0  0  0  0
   -6.5769   31.0987    9.2709 C   0  0  0  0  0  0  0  0  0  0  0  0
   -6.1036   29.8494    9.9939 C   0  0  0  0  0  0  0  0  0  0  0  0
   -6.3646   28.7490    8.9718 C   0  0  0  0  0  0  0  0  0  0  0  0
   -1.3355   28.0314    7.7158 C   0  0  0  0  0  0  0  0  0  0  0  0
   -0.3169   29.4889    7.7324 S   0  0  0  0  0  0  0  0  0  0  0  0
    0.1074   29.7722    6.3734 O   0  0  0  0  0  0  0  0  0  0  0  0
    0.6532   29.4018    8.8062 O   0  0  0  0  0  0  0  0  0  0  0  0
   -4.2624   33.8395    9.2846 C   0  0  0  0  0  0  0  0  0  0  0  0
   -3.2683   32.7816    8.9032 C   0  0  0  0  0  0  0  0  0  0  0  0
   -2.7074   31.9519    9.8840 C   0  0  0  0  0  0  0  0  0  0  0  0
   -1.8027   30.9498    9.5307 C   0  0  0  0  0  0  0  0  0  0  0  0
   -1.4746   30.7648    8.1860 C   0  0  0  0  0  0  0  0  0  0  0  0
   -2.0226   31.5839    7.1967 C   0  0  0  0  0  0  0  0  0  0  0  0
   -2.9265   32.5840    7.5581 C   0  0  0  0  0  0  0  0  0  0  0  0
 17 18  1  0  0  0
 18 19  1  0  0  0
 19 20  2  0  0  0
 20 21  1  0  0  0
 21 14  1  0  0  0
 14 15  2  0  0  0
 14 16  2  0  0  0
 14 13  1  0  0  0
 13  1  1  0  0  0
  1  2  1  0  0  0
  1  3  1  0  0  0
  3  5  1  0  0  0
  5  6  1  0  0  0
  6  7  1  0  0  0
  7  8  1  0  0  0
  8  9  1  0  0  0
  9 10  1  0  0  0
 10 11  1  0  0  0
 11 12  1  0  0  0
 21 22  2  0  0  0
 22 23  1  0  0  0
 23 18  2  0  0  0
  8  5  1  0  0  0
 12  8  1  0  0  0
  3  4  1  0  0  0
M  END
> <minimizedAffinity>
-8.52705

$$$$
OCNT-2316212


 25 27  0  0  0  0  0  0  0  0999 V2000
   -5.1444   26.4589    3.8419 C   0  0  0  0  0  0  0  0  0  0  0  0
   -4.4820   27.1215    3.0416 O   0  0  0  0  0  0  0  0  0  0  0  0
   -5.1993   25.0653    3.7614 N   0  0  0  0  0  0  0  0  0  0  0  0
   -5.8194   24.2044    4.7616 C   0  0  0  0  0  0  0  0  0  0  0  0
   -5.9515   27.1104    4.9588 C   0  0  0  0  0  0  0  0  0  0  0  0
   -6.8421   29.8814    6.6970 C   0  0  0  0  0  0  0  0  0  0  0  0
   -5.5707   29.1575    6.5223 C   0  0  0  0  0  0  0  0  0  0  0  0
   -5.1699   28.0458    5.8125 C   0  0  0  0  0  0  0  0  0  0  0  0
   -3.8295   27.8184    6.0500 N   0  0  0  0  0  0  0  0  0  0  0  0
   -3.4493   28.8016    6.8491 C   0  0  0  0  0  0  0  0  0  0  0  0
   -4.4814   29.6514    7.1799 O   0  0  0  0  0  0  0  0  0  0  0  0
   -2.1119   28.9818    7.3466 C   0  0  0  0  0  0  0  0  0  0  0  0
   -1.7050   29.8839    8.3127 C   0  0  0  0  0  0  0  0  0  0  0  0
   -0.3062   29.8090    8.5798 C   0  0  0  0  0  0  0  0  0  0  0  0
    0.3117   28.8508    7.8086 C   0  0  0  0  0  0  0  0  0  0  0  0
   -0.7907   28.0518    6.7736 S   0  0  0  0  0  0  0  0  0  0  0  0
   -4.6007   24.4089    2.5952 C   0  0  0  0  0  0  0  0  0  0  0  0
   -5.6278   23.8067    1.6684 C   0  0  0  0  0  0  0  0  0  0  0  0
   -6.3039   24.6453    0.7717 C   0  0  0  0  0  0  0  0  0  0  0  0
   -6.0346   25.9583    0.7489 F   0  0  0  0  0  0  0  0  0  0  0  0
   -7.2657   24.1609   -0.1127 C   0  0  0  0  0  0  0  0  0  0  0  0
   -7.5770   22.8063   -0.1184 C   0  0  0  0  0  0  0  0  0  0  0  0
   -6.9221   21.9487    0.7642 C   0  0  0  0  0  0  0  0  0  0  0  0
   -5.9556   22.4431    1.6512 C   0  0  0  0  0  0  0  0  0  0  0  0
   -5.2091   21.3011    2.7118 Cl  0  0  0  0  0  0  0  0  0  0  0  0
  6  7  1  0  0  0
  7  8  2  0  0  0
  8  5  1  0  0  0
  5  1  1  0  0  0
  1  2  2  0  0  0
  1  3  1  0  0  0
  3  4  1  0  0  0
  3 17  1  0  0  0
 17 18  1  0  0  0
 18 19  2  0  0  0
 19 20  1  0  0  0
 19 21  1  0  0  0
 21 22  2  0  0  0
 22 23  1  0  0  0
 23 24  2  0  0  0
 24 25  1  0  0  0
  8  9  1  0  0  0
  9 10  2  0  0  0
 10 12  1  0  0  0
 12 13  2  0  0  0
 13 14  1  0  0  0
 14 15  2  0  0  0
 15 16  1  0  0  0
 10 11  1  0  0  0
 11  7  1  0  0  0
 24 18  1  0  0  0
 16 12  1  0  0  0
M  END
> <minimizedAffinity>
-9.24372

$$$$
OCNT-2316228


 24 26  0  0  0  0  0  0  0  0999 V2000
   -3.3221   27.7094    5.3133 N   0  0  0  0  0  0  0  0  0  0  0  0
   -3.4751   28.6186    4.8798 H   0  0  0  0  0  0  0  0  0  0  0  0
   -4.3200   26.7377    4.8025 C   0  0  0  0  0  0  0  0  0  0  0  0
   -5.7479   27.0787    5.1959 C   0  0  0  0  0  0  0  0  0  0  0  0
   -6.1490   28.1178    4.1736 C   0  0  0  0  0  0  0  0  0  0  0  0
   -5.4112   27.8489    2.9754 O   0  0  0  0  0  0  0  0  0  0  0  0
   -4.4197   26.8307    3.2568 C   0  0  0  0  0  0  0  0  0  0  0  0
   -4.7827   25.5274    2.6092 C   0  0  0  0  0  0  0  0  0  0  0  0
   -5.7329   25.2964    1.6322 C   0  0  0  0  0  0  0  0  0  0  0  0
   -5.6942   23.9610    1.3626 N   0  0  0  0  0  0  0  0  0  0  0  0
   -6.5014   23.2433    0.4072 C   0  0  0  0  0  0  0  0  0  0  0  0
   -4.7883   23.2939    2.0977 N   0  0  0  0  0  0  0  0  0  0  0  0
   -4.2452   24.2442    2.8629 C   0  0  0  0  0  0  0  0  0  0  0  0
   -3.3371   27.8548    6.7742 C   0  0  0  0  0  0  0  0  0  0  0  0
   -0.7864   27.8800    7.1539 C   0  0  0  0  0  0  0  0  0  0  0  0
    0.3228   28.5882    7.6472 C   0  0  0  0  0  0  0  0  0  0  0  0
    0.1828   29.7824    8.3636 C   0  0  0  0  0  0  0  0  0  0  0  0
   -1.0774   30.3322    8.5793 C   0  0  0  0  0  0  0  0  0  0  0  0
   -1.2404   31.5947    9.3700 C   0  0  0  0  0  0  0  0  0  0  0  0
   -2.1916   29.6596    8.0739 C   0  0  0  0  0  0  0  0  0  0  0  0
   -2.0648   28.4553    7.3433 C   0  0  0  0  0  0  0  0  0  0  0  0
   -0.0774   26.7424    5.0676 C   0  0  0  0  0  0  0  0  0  0  0  0
   -0.6445   26.7013    6.4045 N   0  0  0  0  0  0  0  0  0  0  0  0
   -0.2277   25.9623    6.9634 H   0  0  0  0  0  0  0  0  0  0  0  0
 22 23  1  0  0  0
 23 15  1  0  0  0
 15 16  1  0  0  0
 16 17  2  0  0  0
 17 18  1  0  0  0
 18 19  1  0  0  0
 18 20  2  0  0  0
 20 21  1  0  0  0
 21 14  1  0  0  0
 14  1  1  0  0  0
  1  3  1  0  0  0
  3  4  1  0  0  0
  4  5  1  0  0  0
  5  6  1  0  0  0
  6  7  1  0  0  0
  7  8  1  0  0  0
  8  9  2  0  0  0
  9 10  1  0  0  0
 10 11  1  0  0  0
 10 12  1  0  0  0
 12 13  2  0  0  0
 21 15  2  0  0  0
  7  3  1  0  0  0
 13  8  1  0  0  0
 23 24  1  0  0  0
  1  2  1  0  0  0
M  END
> <minimizedAffinity>
-8.08814

$$$$
OCNT-2316237


 22 24  0  0  0  0  0  0  0  0999 V2000
   -5.4572   28.7772    7.3505 N   0  0  0  0  0  0  0  0  0  0  0  0
   -6.0480   28.7839    6.1154 C   0  0  0  0  0  0  0  0  0  0  0  0
   -7.0327   29.4125    5.7534 O   0  0  0  0  0  0  0  0  0  0  0  0
   -4.7596   28.0527    7.4968 H   0  0  0  0  0  0  0  0  0  0  0  0
   -5.3315   27.8281    5.1745 C   0  0  0  0  0  0  0  0  0  0  0  0
   -6.0077   27.4215    4.0797 C   0  0  0  0  0  0  0  0  0  0  0  0
   -5.3694   26.5314    3.1836 C   0  0  0  0  0  0  0  0  0  0  0  0
   -5.7073   25.9102    2.0021 C   0  0  0  0  0  0  0  0  0  0  0  0
   -4.5911   25.1271    1.6090 C   0  0  0  0  0  0  0  0  0  0  0  0
   -3.6078   25.2951    2.5628 C   0  0  0  0  0  0  0  0  0  0  0  0
   -4.0900   26.1533    3.5208 N   0  0  0  0  0  0  0  0  0  0  0  0
   -3.4490   26.6123    4.6717 C   0  0  0  0  0  0  0  0  0  0  0  0
   -4.0323   27.4326    5.4981 N   0  0  0  0  0  0  0  0  0  0  0  0
   -5.8923   30.7666    8.8142 N   0  0  0  0  0  0  0  0  0  0  0  0
   -6.4142   30.8516   10.0913 C   0  0  0  0  0  0  0  0  0  0  0  0
   -6.5296   29.5613   10.5309 C   0  0  0  0  0  0  0  0  0  0  0  0
   -6.1302   28.6955    9.5570 N   0  0  0  0  0  0  0  0  0  0  0  0
   -5.8212   29.4248    8.5006 C   0  0  0  0  0  0  0  0  0  0  0  0
   -5.4492   31.9509    8.1071 C   0  0  0  0  0  0  0  0  0  0  0  0
   -3.2837   32.6897    9.2452 C   0  0  0  0  0  0  0  0  0  0  0  0
   -4.7447   33.0361    8.9483 C   0  0  0  0  0  0  0  0  0  0  0  0
   -4.8410   34.4386    8.3522 C   0  0  0  0  0  0  0  0  0  0  0  0
 20 21  1  0  0  0
 21 22  1  0  0  0
 21 19  1  0  0  0
 19 14  1  0  0  0
 14 15  1  0  0  0
 15 16  2  0  0  0
 16 17  1  0  0  0
 17 18  2  0  0  0
 18  1  1  0  0  0
  1  2  1  0  0  0
  2  3  2  0  0  0
  2  5  1  0  0  0
  5  6  2  0  0  0
  6  7  1  0  0  0
  7  8  2  0  0  0
  8  9  1  0  0  0
  9 10  2  0  0  0
 10 11  1  0  0  0
 11 12  1  0  0  0
 12 13  2  0  0  0
 18 14  1  0  0  0
 13  5  1  0  0  0
 11  7  1  0  0  0
  1  4  1  0  0  0
M  END
> <minimizedAffinity>
-7.96210

$$$$
OCNT-2316240


 25 28  0  0  0  0  0  0  0  0999 V2000
   -1.7877   26.5991    4.6084 O   0  0  0  0  0  0  0  0  0  0  0  0
   -2.0940   26.8436    5.7716 C   0  0  0  0  0  0  0  0  0  0  0  0
   -3.3814   26.7320    6.2247 N   0  0  0  0  0  0  0  0  0  0  0  0
   -1.1817   27.2649    6.7292 N   0  0  0  0  0  0  0  0  0  0  0  0
    0.2073   27.4310    6.3209 C   0  0  0  0  0  0  0  0  0  0  0  0
    0.5008   28.9003    6.0398 C   0  0  0  0  0  0  0  0  0  0  0  0
    0.1261   29.7775    7.2408 C   0  0  0  0  0  0  0  0  0  0  0  0
   -1.3219   29.5326    7.7642 C   0  0  0  0  0  0  0  0  0  0  0  0
   -2.3867   30.1096    6.7879 C   0  0  0  0  0  0  0  0  0  0  0  0
   -2.5443   31.6031    6.8651 C   0  0  0  0  0  0  0  0  0  0  0  0
   -2.0889   32.3388    7.8888 C   0  0  0  0  0  0  0  0  0  0  0  0
   -1.3933   31.7469    9.0770 C   0  0  0  0  0  0  0  0  0  0  0  0
   -1.5074   30.2197    9.1423 C   0  0  0  0  0  0  0  0  0  0  0  0
   -1.5382   28.0060    7.9415 C   0  0  0  0  0  0  0  0  0  0  0  0
   -3.4463   26.3543    7.1569 H   0  0  0  0  0  0  0  0  0  0  0  0
   -4.4162   26.2771    5.3231 C   0  0  0  0  0  0  0  0  0  0  0  0
   -5.1695   27.4429    4.7565 C   0  0  0  0  0  0  0  0  0  0  0  0
   -5.2553   27.6397    3.3666 C   0  0  0  0  0  0  0  0  0  0  0  0
   -5.9464   28.7411    2.8302 C   0  0  0  0  0  0  0  0  0  0  0  0
   -6.5605   29.6692    3.6724 C   0  0  0  0  0  0  0  0  0  0  0  0
   -6.4601   29.4648    5.0319 C   0  0  0  0  0  0  0  0  0  0  0  0
   -5.7839   28.3873    5.5608 C   0  0  0  0  0  0  0  0  0  0  0  0
   -5.8029   28.3932    6.9226 O   0  0  0  0  0  0  0  0  0  0  0  0
   -6.5842   29.5764    7.1854 C   0  0  0  0  0  0  0  0  0  0  0  0
   -6.9900   30.2716    5.9905 O   0  0  0  0  0  0  0  0  0  0  0  0
  1  2  2  0  0  0
  2  3  1  0  0  0
  3 16  1  0  0  0
 16 17  1  0  0  0
 17 18  2  0  0  0
 18 19  1  0  0  0
 19 20  2  0  0  0
 20 21  1  0  0  0
 21 22  2  0  0  0
 22 23  1  0  0  0
 23 24  1  0  0  0
 24 25  1  0  0  0
  2  4  1  0  0  0
  4  5  1  0  0  0
  5  6  1  0  0  0
  6  7  1  0  0  0
  7  8  1  0  0  0
  8  9  1  0  0  0
  9 10  1  0  0  0
 10 11  2  0  0  0
 11 12  1  0  0  0
 12 13  1  0  0  0
  8 14  1  0  0  0
 22 17  1  0  0  0
 14  4  1  0  0  0
 25 21  1  0  0  0
 13  8  1  0  0  0
  3 15  1  0  0  0
M  END
> <minimizedAffinity>
-9.10476

$$$$
OCNT-2316247


 25 28  0  0  0  0  0  0  0  0999 V2000
   -4.2608   26.6820    4.7084 C   0  0  0  0  0  0  0  0  0  0  0  0
   -3.6950   26.4044    3.3036 C   0  0  0  0  0  0  0  0  0  0  0  0
   -4.8873   25.9807    2.4279 C   0  0  0  0  0  0  0  0  0  0  0  0
   -6.0041   25.6699    3.4250 C   0  0  0  0  0  0  0  0  0  0  0  0
   -5.7834   26.7123    4.5084 C   0  0  0  0  0  0  0  0  0  0  0  0
   -6.4692   26.3804    5.7032 O   0  0  0  0  0  0  0  0  0  0  0  0
   -7.4190   26.3345    5.4939 H   0  0  0  0  0  0  0  0  0  0  0  0
   -2.2613   26.8693    6.6821 O   0  0  0  0  0  0  0  0  0  0  0  0
   -2.8650   27.8892    6.3564 C   0  0  0  0  0  0  0  0  0  0  0  0
   -3.7666   27.9055    5.3081 N   0  0  0  0  0  0  0  0  0  0  0  0
   -4.3751   28.7194    5.2895 H   0  0  0  0  0  0  0  0  0  0  0  0
   -2.7274   29.1678    7.0238 C   0  0  0  0  0  0  0  0  0  0  0  0
   -1.7811   29.6724    7.8928 C   0  0  0  0  0  0  0  0  0  0  0  0
   -2.1784   30.9773    8.2538 C   0  0  0  0  0  0  0  0  0  0  0  0
   -3.3495   31.2092    7.5736 C   0  0  0  0  0  0  0  0  0  0  0  0
   -3.6938   30.1285    6.8252 O   0  0  0  0  0  0  0  0  0  0  0  0
   -0.5295   28.9330    8.4129 C   0  0  0  0  0  0  0  0  0  0  0  0
    0.7594   29.0494    7.6408 C   0  0  0  0  0  0  0  0  0  0  0  0
    0.6253   29.7216    8.9745 C   0  0  0  0  0  0  0  0  0  0  0  0
   -4.5428   24.8192    1.4951 C   0  0  0  0  0  0  0  0  0  0  0  0
   -5.6791   24.3662    0.7186 N   0  0  0  0  0  0  0  0  0  0  0  0
   -6.2148   23.1094    0.7232 C   0  0  0  0  0  0  0  0  0  0  0  0
   -7.2666   23.1718   -0.1620 C   0  0  0  0  0  0  0  0  0  0  0  0
   -7.3738   24.4264   -0.7033 N   0  0  0  0  0  0  0  0  0  0  0  0
   -6.3979   25.1210   -0.1630 C   0  0  0  0  0  0  0  0  0  0  0  0
  8  9  2  0  0  0
  9 10  1  0  0  0
 10  1  1  0  0  0
  1  2  1  0  0  0
  2  3  1  0  0  0
  3 20  1  0  0  0
 20 21  1  0  0  0
 21 22  1  0  0  0
 22 23  2  0  0  0
 23 24  1  0  0  0
 24 25  2  0  0  0
  3  4  1  0  0  0
  4  5  1  0  0  0
  5  6  1  0  0  0
  9 12  1  0  0  0
 12 13  2  0  0  0
 13 17  1  0  0  0
 17 18  1  0  0  0
 18 19  1  0  0  0
 13 14  1  0  0  0
 14 15  2  0  0  0
 15 16  1  0  0  0
  5  1  1  0  0  0
 16 12  1  0  0  0
 25 21  1  0  0  0
 19 17  1  0  0  0
 10 11  1  0  0  0
  6  7  1  0  0  0
M  END
> <minimizedAffinity>
-8.74382

$$$$
OCNT-2316253


 22 25  0  0  0  0  0  0  0  0999 V2000
   -1.9916   26.8160    7.4520 O   0  0  0  0  0  0  0  0  0  0  0  0
   -2.7268   27.4862    6.7307 C   0  0  0  0  0  0  0  0  0  0  0  0
   -3.0809   28.7753    7.0805 N   0  0  0  0  0  0  0  0  0  0  0  0
   -3.5160   29.3703    6.3915 H   0  0  0  0  0  0  0  0  0  0  0  0
   -2.5179   29.4292    8.2527 C   0  0  0  0  0  0  0  0  0  0  0  0
   -1.0413   29.7724    7.9869 C   0  0  0  0  0  0  0  0  0  0  0  0
   -0.4990   30.7292    9.0399 C   0  0  0  0  0  0  0  0  0  0  0  0
   -1.2558   32.0530    8.9854 C   0  0  0  0  0  0  0  0  0  0  0  0
   -2.7468   31.8608    8.9913 C   0  0  0  0  0  0  0  0  0  0  0  0
   -3.5793   32.9262    9.3287 C   0  0  0  0  0  0  0  0  0  0  0  0
   -4.9272   32.8579    9.3648 N   0  0  0  0  0  0  0  0  0  0  0  0
   -5.4795   31.6680    9.0581 C   0  0  0  0  0  0  0  0  0  0  0  0
   -4.7454   30.5508    8.6951 C   0  0  0  0  0  0  0  0  0  0  0  0
   -3.3475   30.6442    8.6308 C   0  0  0  0  0  0  0  0  0  0  0  0
   -3.2807   27.0188    5.4616 C   0  0  0  0  0  0  0  0  0  0  0  0
   -2.6707   26.2939    4.4468 C   0  0  0  0  0  0  0  0  0  0  0  0
   -3.5995   26.0689    3.4142 C   0  0  0  0  0  0  0  0  0  0  0  0
   -4.8376   26.5825    3.5951 C   0  0  0  0  0  0  0  0  0  0  0  0
   -5.6216   26.2568    2.4609 C   0  0  0  0  0  0  0  0  0  0  0  0
   -4.7545   25.5499    1.6650 C   0  0  0  0  0  0  0  0  0  0  0  0
   -3.5181   25.4204    2.2183 O   0  0  0  0  0  0  0  0  0  0  0  0
   -4.9401   27.4089    5.1081 S   0  0  0  0  0  0  0  0  0  0  0  0
  1  2  2  0  0  0
  2  3  1  0  0  0
  3  5  1  0  0  0
  5  6  1  0  0  0
  6  7  1  0  0  0
  7  8  1  0  0  0
  8  9  1  0  0  0
  9 10  2  0  0  0
 10 11  1  0  0  0
 11 12  2  0  0  0
 12 13  1  0  0  0
 13 14  2  0  0  0
  2 15  1  0  0  0
 15 16  2  0  0  0
 16 17  1  0  0  0
 17 18  2  0  0  0
 18 19  1  0  0  0
 19 20  2  0  0  0
 20 21  1  0  0  0
 18 22  1  0  0  0
 14  5  1  0  0  0
 22 15  1  0  0  0
 14  9  1  0  0  0
 21 17  1  0  0  0
  3  4  1  0  0  0
M  END
> <minimizedAffinity>
-8.61430

$$$$
OCNT-2316255


 27 30  0  0  0  0  0  0  0  0999 V2000
   -6.4539   28.6210    5.2825 C   0  0  0  0  0  0  0  0  0  0  0  0
   -5.7784   28.9276    3.9378 C   0  0  0  0  0  0  0  0  0  0  0  0
   -5.9690   27.8106    2.9167 C   0  0  0  0  0  0  0  0  0  0  0  0
   -5.5409   26.4987    3.4172 N   0  0  0  0  0  0  0  0  0  0  0  0
   -5.3130   26.4114    4.8726 C   0  0  0  0  0  0  0  0  0  0  0  0
   -6.4495   27.1193    5.6013 C   0  0  0  0  0  0  0  0  0  0  0  0
   -5.6464   25.3343    2.6451 C   0  0  0  0  0  0  0  0  0  0  0  0
   -5.4893   24.1708    3.2332 N   0  0  0  0  0  0  0  0  0  0  0  0
   -5.6369   23.0994    2.4253 N   0  0  0  0  0  0  0  0  0  0  0  0
   -5.5330   21.8367    2.8734 N   0  0  0  0  0  0  0  0  0  0  0  0
   -5.7672   21.0651    1.8168 N   0  0  0  0  0  0  0  0  0  0  0  0
   -6.0024   21.8203    0.6885 N   0  0  0  0  0  0  0  0  0  0  0  0
   -5.9295   23.0719    1.0805 C   0  0  0  0  0  0  0  0  0  0  0  0
   -6.0727   24.3099    0.4325 C   0  0  0  0  0  0  0  0  0  0  0  0
   -5.9388   25.4279    1.1587 C   0  0  0  0  0  0  0  0  0  0  0  0
   -5.8329   28.8259    7.6188 N   0  0  0  0  0  0  0  0  0  0  0  0
   -5.7422   29.4167    6.3737 C   0  0  0  0  0  0  0  0  0  0  0  0
   -5.1847   30.4841    6.1489 O   0  0  0  0  0  0  0  0  0  0  0  0
   -6.5352   28.1076    7.7229 H   0  0  0  0  0  0  0  0  0  0  0  0
   -5.8520   28.6550   10.1083 C   0  0  0  0  0  0  0  0  0  0  0  0
   -5.4131   29.4672    8.8720 C   0  0  0  0  0  0  0  0  0  0  0  0
   -6.1327   30.8332    8.9824 C   0  0  0  0  0  0  0  0  0  0  0  0
   -3.8978   29.6750    8.8111 C   0  0  0  0  0  0  0  0  0  0  0  0
   -2.9210   28.8459    8.2745 C   0  0  0  0  0  0  0  0  0  0  0  0
   -1.6003   29.3628    8.4270 C   0  0  0  0  0  0  0  0  0  0  0  0
   -1.5975   30.5809    9.0677 C   0  0  0  0  0  0  0  0  0  0  0  0
   -3.1765   31.1125    9.4463 S   0  0  0  0  0  0  0  0  0  0  0  0
 20 21  1  0  0  0
 21 22  1  0  0  0
 21 16  1  0  0  0
 16 17  1  0  0  0
 17 18  2  0  0  0
 17  1  1  0  0  0
  1  2  1  0  0  0
  2  3  1  0  0  0
  3  4  1  0  0  0
  4  7  1  0  0  0
  7  8  2  0  0  0
  8  9  1  0  0  0
  9 10  1  0  0  0
 10 11  2  0  0  0
 11 12  1  0  0  0
 12 13  2  0  0  0
 13 14  1  0  0  0
 14 15  2  0  0  0
  4  5  1  0  0  0
  5  6  1  0  0  0
 21 23  1  0  0  0
 23 24  2  0  0  0
 24 25  1  0  0  0
 25 26  2  0  0  0
 26 27  1  0  0  0
  6  1  1  0  0  0
 27 23  1  0  0  0
 15  7  1  0  0  0
 13  9  1  0  0  0
 16 19  1  0  0  0
M  END
> <minimizedAffinity>
-9.62516

$$$$
OCNT-2316256


 26 28  0  0  0  0  0  0  0  0999 V2000
   -2.2282   28.5737    6.4621 N   0  0  0  0  0  0  0  0  0  0  0  0
   -3.5785   28.3337    6.4385 C   0  0  0  0  0  0  0  0  0  0  0  0
   -4.3618   28.6964    7.3041 O   0  0  0  0  0  0  0  0  0  0  0  0
   -3.9332   27.6378    5.3134 N   0  0  0  0  0  0  0  0  0  0  0  0
   -1.8018   28.6430    5.5487 H   0  0  0  0  0  0  0  0  0  0  0  0
   -3.2190   27.0091    4.9766 H   0  0  0  0  0  0  0  0  0  0  0  0
   -5.3038   27.2039    5.1416 C   0  0  0  0  0  0  0  0  0  0  0  0
   -6.1069   28.1343    4.2110 C   0  0  0  0  0  0  0  0  0  0  0  0
   -5.8861   27.6185    2.7805 C   0  0  0  0  0  0  0  0  0  0  0  0
   -5.6848   26.1533    3.0199 C   0  0  0  0  0  0  0  0  0  0  0  0
   -5.7387   25.1053    2.1158 C   0  0  0  0  0  0  0  0  0  0  0  0
   -6.1063   25.3684    0.4580 Cl  0  0  0  0  0  0  0  0  0  0  0  0
   -5.4821   23.8094    2.5705 C   0  0  0  0  0  0  0  0  0  0  0  0
   -5.1636   23.5759    3.9181 C   0  0  0  0  0  0  0  0  0  0  0  0
   -5.0939   24.6357    4.8243 C   0  0  0  0  0  0  0  0  0  0  0  0
   -5.3567   25.9181    4.3632 C   0  0  0  0  0  0  0  0  0  0  0  0
   -1.6332   29.3880    7.5256 C   0  0  0  0  0  0  0  0  0  0  0  0
   -0.3326   28.7266    7.9832 C   0  0  0  0  0  0  0  0  0  0  0  0
   -1.4160   30.8406    7.0568 C   0  0  0  0  0  0  0  0  0  0  0  0
   -4.6786   34.1780    9.1437 C   0  0  0  0  0  0  0  0  0  0  0  0
   -3.9402   33.1919    8.3261 C   0  0  0  0  0  0  0  0  0  0  0  0
   -2.7173   32.5842    8.4968 C   0  0  0  0  0  0  0  0  0  0  0  0
   -2.5649   31.7386    7.3736 C   0  0  0  0  0  0  0  0  0  0  0  0
   -3.6223   31.8103    6.5554 N   0  0  0  0  0  0  0  0  0  0  0  0
   -4.4385   32.6916    7.1555 N   0  0  0  0  0  0  0  0  0  0  0  0
   -5.3239   32.9060    6.7089 H   0  0  0  0  0  0  0  0  0  0  0  0
 20 21  1  0  0  0
 21 22  2  0  0  0
 22 23  1  0  0  0
 23 19  1  0  0  0
 19 17  1  0  0  0
 17 18  1  0  0  0
 17  1  1  0  0  0
  1  2  1  0  0  0
  2  3  2  0  0  0
  2  4  1  0  0  0
  4  7  1  0  0  0
  7  8  1  0  0  0
  8  9  1  0  0  0
  9 10  1  0  0  0
 10 11  2  0  0  0
 11 12  1  0  0  0
 11 13  1  0  0  0
 13 14  2  0  0  0
 14 15  1  0  0  0
 15 16  2  0  0  0
 23 24  2  0  0  0
 24 25  1  0  0  0
 25 21  1  0  0  0
 16  7  1  0  0  0
 16 10  1  0  0  0
  1  5  1  0  0  0
  4  6  1  0  0  0
 25 26  1  0  0  0
M  END
> <minimizedAffinity>
-9.48953

$$$$
OCNT-2316262


 30 32  0  0  0  0  0  0  0  0999 V2000
   -5.2789   29.8152    5.8184 S   0  0  0  0  0  0  0  0  0  0  0  0
   -6.2371   30.0200    4.7553 O   0  0  0  0  0  0  0  0  0  0  0  0
   -5.6783   29.7538    7.2079 O   0  0  0  0  0  0  0  0  0  0  0  0
   -4.5847   28.2567    5.5314 C   0  0  0  0  0  0  0  0  0  0  0  0
   -3.6506   27.6350    6.3384 C   0  0  0  0  0  0  0  0  0  0  0  0
   -3.3630   26.4196    5.7806 N   0  0  0  0  0  0  0  0  0  0  0  0
   -4.1016   26.2351    4.6329 C   0  0  0  0  0  0  0  0  0  0  0  0
   -4.1304   25.1437    3.7543 C   0  0  0  0  0  0  0  0  0  0  0  0
   -4.9873   25.2051    2.6411 C   0  0  0  0  0  0  0  0  0  0  0  0
   -5.7949   26.3325    2.4489 C   0  0  0  0  0  0  0  0  0  0  0  0
   -5.7542   27.4144    3.3384 C   0  0  0  0  0  0  0  0  0  0  0  0
   -4.8899   27.3755    4.4526 C   0  0  0  0  0  0  0  0  0  0  0  0
   -2.7114   25.7435    6.1567 H   0  0  0  0  0  0  0  0  0  0  0  0
   -5.0637   24.0400    1.6824 C   0  0  0  0  0  0  0  0  0  0  0  0
   -3.9406   23.9207    0.9218 F   0  0  0  0  0  0  0  0  0  0  0  0
   -6.0996   24.1432    0.8020 F   0  0  0  0  0  0  0  0  0  0  0  0
   -5.2254   22.8389    2.3041 F   0  0  0  0  0  0  0  0  0  0  0  0
   -4.0599   30.9893    5.7211 N   0  0  0  0  0  0  0  0  0  0  0  0
   -4.4984   31.8548    5.3965 H   0  0  0  0  0  0  0  0  0  0  0  0
   -3.6788   32.2816    7.7470 C   0  0  0  0  0  0  0  0  0  0  0  0
   -2.9470   32.5150    8.9159 C   0  0  0  0  0  0  0  0  0  0  0  0
   -1.7962   31.7697    9.1975 C   0  0  0  0  0  0  0  0  0  0  0  0
   -1.3532   30.7863    8.3084 C   0  0  0  0  0  0  0  0  0  0  0  0
   -2.0795   30.5254    7.1451 C   0  0  0  0  0  0  0  0  0  0  0  0
   -3.2544   31.2344    6.8895 C   0  0  0  0  0  0  0  0  0  0  0  0
   -5.0463   34.3255    7.9966 C   0  0  0  0  0  0  0  0  0  0  0  0
   -4.8124   33.0359    7.3598 N   0  0  0  0  0  0  0  0  0  0  0  0
   -4.7715   33.1541    6.3433 H   0  0  0  0  0  0  0  0  0  0  0  0
   -0.1550   30.0518    8.5920 C   0  0  0  0  0  0  0  0  0  0  0  0
    0.8047   29.4400    8.8183 N   0  0  0  0  0  0  0  0  0  0  0  0
 26 27  1  0  0  0
 27 20  1  0  0  0
 20 21  1  0  0  0
 21 22  2  0  0  0
 22 23  1  0  0  0
 23 29  1  0  0  0
 29 30  3  0  0  0
 23 24  2  0  0  0
 24 25  1  0  0  0
 25 18  1  0  0  0
 18  1  1  0  0  0
  1  2  2  0  0  0
  1  3  2  0  0  0
  1  4  1  0  0  0
  4  5  2  0  0  0
  5  6  1  0  0  0
  6  7  1  0  0  0
  7  8  2  0  0  0
  8  9  1  0  0  0
  9 14  1  0  0  0
 14 15  1  0  0  0
 14 16  1  0  0  0
 14 17  1  0  0  0
  9 10  2  0  0  0
 10 11  1  0  0  0
 11 12  2  0  0  0
 25 20  2  0  0  0
 12  4  1  0  0  0
 12  7  1  0  0  0
 27 28  1  0  0  0
 18 19  1  0  0  0
  6 13  1  0  0  0
M  END
> <minimizedAffinity>
-9.80802

$$$$
OCNT-2316287


 25 29  0  0  0  0  0  0  0  0999 V2000
   -4.1674   26.5272    3.9098 N   0  0  0  0  0  0  0  0  0  0  0  0
   -4.9385   26.7456    4.5397 H   0  0  0  0  0  0  0  0  0  0  0  0
   -2.9580   26.6127    4.6056 C   0  0  0  0  0  0  0  0  0  0  0  0
   -2.8319   27.4163    5.7564 C   0  0  0  0  0  0  0  0  0  0  0  0
   -3.7485   28.1996    6.4413 N   0  0  0  0  0  0  0  0  0  0  0  0
   -3.0631   28.7099    7.4454 C   0  0  0  0  0  0  0  0  0  0  0  0
   -1.7626   28.2973    7.4225 N   0  0  0  0  0  0  0  0  0  0  0  0
   -1.5865   27.4509    6.3666 C   0  0  0  0  0  0  0  0  0  0  0  0
   -0.4755   26.7947    5.9899 N   0  0  0  0  0  0  0  0  0  0  0  0
   -0.7076   26.0578    4.8879 C   0  0  0  0  0  0  0  0  0  0  0  0
   -1.8589   25.9283    4.1930 N   0  0  0  0  0  0  0  0  0  0  0  0
   -0.7385   28.6510    8.4228 C   0  0  0  0  0  0  0  0  0  0  0  0
    0.6139   29.1916    8.0230 C   0  0  0  0  0  0  0  0  0  0  0  0
   -0.3627   30.0818    8.7308 C   0  0  0  0  0  0  0  0  0  0  0  0
   -4.3592   25.3412    3.0802 C   0  0  0  0  0  0  0  0  0  0  0  0
   -7.3254   23.5191   -0.7035 C   0  0  0  0  0  0  0  0  0  0  0  0
   -6.7189   24.7650   -0.5751 C   0  0  0  0  0  0  0  0  0  0  0  0
   -6.2401   25.1864    0.6680 C   0  0  0  0  0  0  0  0  0  0  0  0
   -6.3482   24.3613    1.8003 C   0  0  0  0  0  0  0  0  0  0  0  0
   -7.0128   23.1344    1.6633 C   0  0  0  0  0  0  0  0  0  0  0  0
   -7.4742   22.7055    0.4171 C   0  0  0  0  0  0  0  0  0  0  0  0
   -7.2454   22.2755    2.7050 O   0  0  0  0  0  0  0  0  0  0  0  0
   -7.1947   22.9080    3.9848 C   0  0  0  0  0  0  0  0  0  0  0  0
   -5.8887   23.6542    4.1633 C   0  0  0  0  0  0  0  0  0  0  0  0
   -5.8107   24.8086    3.1506 C   0  0  0  0  0  0  0  0  0  0  0  0
 16 17  2  0  0  0
 17 18  1  0  0  0
 18 19  2  0  0  0
 19 20  1  0  0  0
 20 21  2  0  0  0
 20 22  1  0  0  0
 22 23  1  0  0  0
 23 24  1  0  0  0
 24 25  1  0  0  0
 25 15  1  0  0  0
 15  1  1  0  0  0
  1  3  1  0  0  0
  3  4  2  0  0  0
  4  5  1  0  0  0
  5  6  2  0  0  0
  6  7  1  0  0  0
  7 12  1  0  0  0
 12 13  1  0  0  0
 13 14  1  0  0  0
  7  8  1  0  0  0
  8  9  2  0  0  0
  9 10  1  0  0  0
 10 11  2  0  0  0
 21 16  1  0  0  0
 11  3  1  0  0  0
 25 19  1  0  0  0
  8  4  1  0  0  0
 14 12  1  0  0  0
  1  2  1  0  0  0
M  END
> <minimizedAffinity>
-9.46178

$$$$
OCNT-2316288


 26 29  0  0  0  0  0  0  0  0999 V2000
   -5.9793   24.9377    4.4828 C   0  0  0  0  0  0  0  0  0  0  0  0
   -5.3733   24.7401    3.2701 C   0  0  0  0  0  0  0  0  0  0  0  0
   -4.3109   25.2799    2.4030 C   0  0  0  0  0  0  0  0  0  0  0  0
   -4.7466   24.7610    0.9900 C   0  0  0  0  0  0  0  0  0  0  0  0
   -5.7215   23.5580    1.2199 C   0  0  0  0  0  0  0  0  0  0  0  0
   -6.1472   23.7957    2.6106 C   0  0  0  0  0  0  0  0  0  0  0  0
   -7.1669   23.3437    3.3168 N   0  0  0  0  0  0  0  0  0  0  0  0
   -6.9665   23.9198    4.5622 N   0  0  0  0  0  0  0  0  0  0  0  0
   -7.5845   23.3076    5.6945 C   0  0  0  0  0  0  0  0  0  0  0  0
   -6.8224   22.4652    6.5207 C   0  0  0  0  0  0  0  0  0  0  0  0
   -7.3926   21.8812    7.6544 C   0  0  0  0  0  0  0  0  0  0  0  0
   -8.7207   22.1471    7.9818 C   0  0  0  0  0  0  0  0  0  0  0  0
   -9.4773   23.0008    7.1806 C   0  0  0  0  0  0  0  0  0  0  0  0
   -8.9101   23.5869    6.0450 C   0  0  0  0  0  0  0  0  0  0  0  0
   -5.7625   27.2976    5.0285 C   0  0  0  0  0  0  0  0  0  0  0  0
   -6.2264   27.7271    3.9772 O   0  0  0  0  0  0  0  0  0  0  0  0
   -5.6701   25.9536    5.3807 N   0  0  0  0  0  0  0  0  0  0  0  0
   -4.9821   25.7184    6.0875 H   0  0  0  0  0  0  0  0  0  0  0  0
   -5.1765   28.2273    6.0767 C   0  0  0  0  0  0  0  0  0  0  0  0
   -1.6269   28.0921    6.8163 N   0  0  0  0  0  0  0  0  0  0  0  0
   -2.8269   28.6568    7.1297 C   0  0  0  0  0  0  0  0  0  0  0  0
   -3.7139   28.0667    6.2525 C   0  0  0  0  0  0  0  0  0  0  0  0
   -3.0336   27.1469    5.4931 N   0  0  0  0  0  0  0  0  0  0  0  0
   -1.7567   27.1729    5.8485 N   0  0  0  0  0  0  0  0  0  0  0  0
    0.4956   29.3027    6.5142 C   0  0  0  0  0  0  0  0  0  0  0  0
   -0.3308   28.3774    7.3897 C   0  0  0  0  0  0  0  0  0  0  0  0
 25 26  1  0  0  0
 26 20  1  0  0  0
 20 21  1  0  0  0
 21 22  2  0  0  0
 22 19  1  0  0  0
 19 15  1  0  0  0
 15 16  2  0  0  0
 15 17  1  0  0  0
 17  1  1  0  0  0
  1  2  2  0  0  0
  2  3  1  0  0  0
  3  4  1  0  0  0
  4  5  1  0  0  0
  5  6  1  0  0  0
  6  7  2  0  0  0
  7  8  1  0  0  0
  8  9  1  0  0  0
  9 10  2  0  0  0
 10 11  1  0  0  0
 11 12  2  0  0  0
 12 13  1  0  0  0
 13 14  2  0  0  0
 22 23  1  0  0  0
 23 24  2  0  0  0
 24 20  1  0  0  0
  8  1  1  0  0  0
 14  9  1  0  0  0
  6  2  1  0  0  0
 17 18  1  0  0  0
M  END
> <minimizedAffinity>
-8.89452

$$$$
OCNT-2316296


 24 27  0  0  0  0  0  0  0  0999 V2000
   -4.5944   26.9179    4.8571 N   0  0  0  0  0  0  0  0  0  0  0  0
   -5.5328   25.9701    4.5668 C   0  0  0  0  0  0  0  0  0  0  0  0
   -4.8646   25.0843    3.7498 C   0  0  0  0  0  0  0  0  0  0  0  0
   -3.5733   25.5090    3.5864 N   0  0  0  0  0  0  0  0  0  0  0  0
   -3.4161   26.6317    4.2743 N   0  0  0  0  0  0  0  0  0  0  0  0
   -5.4240   23.8938    3.1446 C   0  0  0  0  0  0  0  0  0  0  0  0
   -5.3804   22.6939    3.8561 C   0  0  0  0  0  0  0  0  0  0  0  0
   -5.8593   21.5131    3.4067 N   0  0  0  0  0  0  0  0  0  0  0  0
   -6.4280   21.5304    2.1824 C   0  0  0  0  0  0  0  0  0  0  0  0
   -6.5397   22.6617    1.3713 C   0  0  0  0  0  0  0  0  0  0  0  0
   -7.1433   22.5916    0.1023 C   0  0  0  0  0  0  0  0  0  0  0  0
   -7.2411   23.7237   -0.7032 C   0  0  0  0  0  0  0  0  0  0  0  0
   -6.7357   24.9355   -0.2510 C   0  0  0  0  0  0  0  0  0  0  0  0
   -6.1344   25.0163    1.0083 C   0  0  0  0  0  0  0  0  0  0  0  0
   -6.0238   23.8864    1.8573 C   0  0  0  0  0  0  0  0  0  0  0  0
   -4.0613   32.0201    6.7736 O   0  0  0  0  0  0  0  0  0  0  0  0
   -4.1656   30.8489    6.4241 C   0  0  0  0  0  0  0  0  0  0  0  0
   -3.6542   29.7058    7.2676 C   0  0  0  0  0  0  0  0  0  0  0  0
   -3.4362   28.4604    6.4241 C   0  0  0  0  0  0  0  0  0  0  0  0
   -4.7395   28.0814    5.7138 C   0  0  0  0  0  0  0  0  0  0  0  0
   -5.2948   29.2550    4.9247 C   0  0  0  0  0  0  0  0  0  0  0  0
   -6.1781   29.1418    4.0768 O   0  0  0  0  0  0  0  0  0  0  0  0
   -4.8433   30.5059    5.2810 N   0  0  0  0  0  0  0  0  0  0  0  0
   -5.2515   31.2792    4.7713 H   0  0  0  0  0  0  0  0  0  0  0  0
 16 17  2  0  0  0
 17 18  1  0  0  0
 18 19  1  0  0  0
 19 20  1  0  0  0
 20  1  1  0  0  0
  1  2  1  0  0  0
  2  3  2  0  0  0
  3  6  1  0  0  0
  6  7  1  0  0  0
  7  8  2  0  0  0
  8  9  1  0  0  0
  9 10  2  0  0  0
 10 11  1  0  0  0
 11 12  2  0  0  0
 12 13  1  0  0  0
 13 14  2  0  0  0
 14 15  1  0  0  0
  3  4  1  0  0  0
  4  5  2  0  0  0
 20 21  1  0  0  0
 21 22  2  0  0  0
 21 23  1  0  0  0
 23 17  1  0  0  0
  5  1  1  0  0  0
 15  6  2  0  0  0
 15 10  1  0  0  0
 23 24  1  0  0  0
M  END
> <minimizedAffinity>
-9.51077

$$$$
OCNT-2316305


 21 22  0  0  0  0  0  0  0  0999 V2000
   -4.0400   31.2641    8.5021 N   0  0  0  0  0  0  0  0  0  0  0  0
   -4.5065   30.0984    7.7769 C   0  0  0  0  0  0  0  0  0  0  0  0
   -3.6314   28.8845    8.0659 C   0  0  0  0  0  0  0  0  0  0  0  0
   -2.2393   29.1280    7.6833 N   0  0  0  0  0  0  0  0  0  0  0  0
   -1.4326   28.1517    7.1006 C   0  0  0  0  0  0  0  0  0  0  0  0
   -0.3192   28.3992    6.6401 O   0  0  0  0  0  0  0  0  0  0  0  0
   -1.6833   30.4918    7.9940 C   0  0  0  0  0  0  0  0  0  0  0  0
   -1.3419   31.2383    6.6886 C   0  0  0  0  0  0  0  0  0  0  0  0
   -0.4290   30.3814    8.8872 C   0  0  0  0  0  0  0  0  0  0  0  0
   -2.6846   31.4420    8.7569 C   0  0  0  0  0  0  0  0  0  0  0  0
   -2.2894   32.3877    9.4427 O   0  0  0  0  0  0  0  0  0  0  0  0
   -5.0232   32.1923    9.0512 C   0  0  0  0  0  0  0  0  0  0  0  0
   -4.7999   34.6616    8.6090 C   0  0  0  0  0  0  0  0  0  0  0  0
   -5.3229   33.3354    8.0827 C   0  0  0  0  0  0  0  0  0  0  0  0
   -1.9976   26.7423    7.0085 C   0  0  0  0  0  0  0  0  0  0  0  0
   -1.7621   26.1108    5.6380 C   0  0  0  0  0  0  0  0  0  0  0  0
   -2.8663   26.3476    4.7267 N   0  0  0  0  0  0  0  0  0  0  0  0
   -4.1080   26.8115    5.0534 C   0  0  0  0  0  0  0  0  0  0  0  0
   -4.7872   26.8773    3.8595 C   0  0  0  0  0  0  0  0  0  0  0  0
   -3.9919   26.4582    2.8235 N   0  0  0  0  0  0  0  0  0  0  0  0
   -2.8453   26.1352    3.3775 C   0  0  0  0  0  0  0  0  0  0  0  0
 13 14  1  0  0  0
 14 12  1  0  0  0
 12  1  1  0  0  0
  1  2  1  0  0  0
  2  3  1  0  0  0
  3  4  1  0  0  0
  4  5  1  0  0  0
  5  6  2  0  0  0
  5 15  1  0  0  0
 15 16  1  0  0  0
 16 17  1  0  0  0
 17 18  1  0  0  0
 18 19  2  0  0  0
 19 20  1  0  0  0
 20 21  2  0  0  0
  4  7  1  0  0  0
  7  8  1  0  0  0
  7  9  1  0  0  0
  7 10  1  0  0  0
 10 11  2  0  0  0
 10  1  1  0  0  0
 21 17  1  0  0  0
M  END
> <minimizedAffinity>
-7.41220

$$$$
OCNT-2316334


 23 25  0  0  0  0  0  0  0  0999 V2000
   -1.7822   28.2610    7.3004 C   0  0  0  0  0  0  0  0  0  0  0  0
   -2.7043   29.1103    7.7073 N   0  0  0  0  0  0  0  0  0  0  0  0
   -2.2050   30.4009    7.7197 C   0  0  0  0  0  0  0  0  0  0  0  0
   -0.8825   30.5110    7.3373 C   0  0  0  0  0  0  0  0  0  0  0  0
   -0.2525   28.9671    6.9415 S   0  0  0  0  0  0  0  0  0  0  0  0
   -3.0395   31.5261    8.1046 C   0  0  0  0  0  0  0  0  0  0  0  0
   -3.9491   32.0801    7.1980 C   0  0  0  0  0  0  0  0  0  0  0  0
   -4.0398   31.6184    5.9412 F   0  0  0  0  0  0  0  0  0  0  0  0
   -4.7706   33.1524    7.5541 C   0  0  0  0  0  0  0  0  0  0  0  0
   -4.6953   33.6935    8.8356 C   0  0  0  0  0  0  0  0  0  0  0  0
   -3.7944   33.1579    9.7531 C   0  0  0  0  0  0  0  0  0  0  0  0
   -2.9784   32.0857    9.3850 C   0  0  0  0  0  0  0  0  0  0  0  0
   -2.1333   31.5992   10.3076 F   0  0  0  0  0  0  0  0  0  0  0  0
   -1.9849   26.7688    7.1499 C   0  0  0  0  0  0  0  0  0  0  0  0
   -1.3870   26.0654    4.9012 C   0  0  0  0  0  0  0  0  0  0  0  0
   -2.4875   26.3024    5.8351 N   0  0  0  0  0  0  0  0  0  0  0  0
   -3.5068   27.2181    5.2742 C   0  0  0  0  0  0  0  0  0  0  0  0
   -4.7734   26.5116    4.7223 C   0  0  0  0  0  0  0  0  0  0  0  0
   -4.8950   25.2326    5.4046 O   0  0  0  0  0  0  0  0  0  0  0  0
   -6.1188   27.3012    4.6611 C   0  0  0  0  0  0  0  0  0  0  0  0
   -5.8642   27.5698    3.1694 C   0  0  0  0  0  0  0  0  0  0  0  0
   -4.8640   26.4008    3.1659 C   0  0  0  0  0  0  0  0  0  0  0  0
   -5.6654   24.7963    5.0040 H   0  0  0  0  0  0  0  0  0  0  0  0
 15 16  1  0  0  0
 16 14  1  0  0  0
 14  1  1  0  0  0
  1  2  2  0  0  0
  2  3  1  0  0  0
  3  6  1  0  0  0
  6  7  2  0  0  0
  7  8  1  0  0  0
  7  9  1  0  0  0
  9 10  2  0  0  0
 10 11  1  0  0  0
 11 12  2  0  0  0
 12 13  1  0  0  0
  3  4  2  0  0  0
  4  5  1  0  0  0
 16 17  1  0  0  0
 17 18  1  0  0  0
 18 19  1  0  0  0
 18 20  1  0  0  0
 20 21  1  0  0  0
 21 22  1  0  0  0
  5  1  1  0  0  0
 22 18  1  0  0  0
 12  6  1  0  0  0
 19 23  1  0  0  0
M  END
> <minimizedAffinity>
-8.16896

$$$$
OCNT-2316345


 25 28  0  0  0  0  0  0  0  0999 V2000
   -2.6637   27.7325    6.4917 C   0  0  0  0  0  0  0  0  0  0  0  0
   -2.1681   27.0385    7.3703 O   0  0  0  0  0  0  0  0  0  0  0  0
   -2.7853   29.1075    6.5062 N   0  0  0  0  0  0  0  0  0  0  0  0
   -3.2752   29.5184    5.7218 H   0  0  0  0  0  0  0  0  0  0  0  0
   -2.3705   30.0235    7.4968 C   0  0  0  0  0  0  0  0  0  0  0  0
   -1.0641   29.8578    7.9978 C   0  0  0  0  0  0  0  0  0  0  0  0
   -0.5354   30.6926    8.9806 C   0  0  0  0  0  0  0  0  0  0  0  0
   -1.2986   31.7344    9.5054 C   0  0  0  0  0  0  0  0  0  0  0  0
   -2.6083   31.9351    9.0319 C   0  0  0  0  0  0  0  0  0  0  0  0
   -3.1176   31.0830    8.0433 C   0  0  0  0  0  0  0  0  0  0  0  0
   -4.3995   31.5257    7.7892 N   0  0  0  0  0  0  0  0  0  0  0  0
   -4.7134   32.6049    8.5683 C   0  0  0  0  0  0  0  0  0  0  0  0
   -3.6205   32.8832    9.3517 C   0  0  0  0  0  0  0  0  0  0  0  0
   -5.0111   31.0933    7.1030 H   0  0  0  0  0  0  0  0  0  0  0  0
   -5.4837   26.2798    2.5882 C   0  0  0  0  0  0  0  0  0  0  0  0
   -4.4852   26.4265    3.6242 N   0  0  0  0  0  0  0  0  0  0  0  0
   -3.3149   25.7786    3.4402 N   0  0  0  0  0  0  0  0  0  0  0  0
   -2.5531   26.1954    4.4470 C   0  0  0  0  0  0  0  0  0  0  0  0
   -3.2032   27.1352    5.2789 C   0  0  0  0  0  0  0  0  0  0  0  0
   -4.4735   27.2541    4.7246 C   0  0  0  0  0  0  0  0  0  0  0  0
   -5.5389   28.0656    5.1371 N   0  0  0  0  0  0  0  0  0  0  0  0
   -6.4834   27.7562    6.0996 C   0  0  0  0  0  0  0  0  0  0  0  0
   -7.3506   28.8137    6.2614 C   0  0  0  0  0  0  0  0  0  0  0  0
   -6.9497   29.8168    5.3618 C   0  0  0  0  0  0  0  0  0  0  0  0
   -5.8511   29.3357    4.6839 C   0  0  0  0  0  0  0  0  0  0  0  0
 15 16  1  0  0  0
 16 17  1  0  0  0
 17 18  2  0  0  0
 18 19  1  0  0  0
 19  1  1  0  0  0
  1  2  2  0  0  0
  1  3  1  0  0  0
  3  5  1  0  0  0
  5  6  1  0  0  0
  6  7  2  0  0  0
  7  8  1  0  0  0
  8  9  2  0  0  0
  9 10  1  0  0  0
 10 11  1  0  0  0
 11 12  1  0  0  0
 12 13  2  0  0  0
 19 20  2  0  0  0
 20 21  1  0  0  0
 21 22  1  0  0  0
 22 23  2  0  0  0
 23 24  1  0  0  0
 24 25  2  0  0  0
 20 16  1  0  0  0
 25 21  1  0  0  0
 10  5  2  0  0  0
 13  9  1  0  0  0
  3  4  1  0  0  0
 11 14  1  0  0  0
M  END
> <minimizedAffinity>
-8.79467

$$$$
OCNT-2316348


 29 31  0  0  0  0  0  0  0  0999 V2000
   -4.0411   27.1447    5.4609 C   0  0  0  0  0  0  0  0  0  0  0  0
   -2.8773   27.0177    5.0823 O   0  0  0  0  0  0  0  0  0  0  0  0
   -4.9998   26.1667    5.3032 N   0  0  0  0  0  0  0  0  0  0  0  0
   -5.8060   26.2152    5.9103 H   0  0  0  0  0  0  0  0  0  0  0  0
   -4.5381   28.4312    6.1409 C   0  0  0  0  0  0  0  0  0  0  0  0
   -6.8981   29.4973    5.9879 C   0  0  0  0  0  0  0  0  0  0  0  0
   -5.5705   29.2150    5.2954 C   0  0  0  0  0  0  0  0  0  0  0  0
   -5.0402   30.5021    4.9387 O   0  0  0  0  0  0  0  0  0  0  0  0
   -4.1117   30.3706    4.6414 H   0  0  0  0  0  0  0  0  0  0  0  0
   -3.3355   29.2310    6.4053 N   0  0  0  0  0  0  0  0  0  0  0  0
   -2.9600   29.6310    7.6568 C   0  0  0  0  0  0  0  0  0  0  0  0
   -3.6176   29.3779    8.6590 O   0  0  0  0  0  0  0  0  0  0  0  0
   -2.7909   29.5093    5.5954 H   0  0  0  0  0  0  0  0  0  0  0  0
   -1.7043   30.4197    7.7702 C   0  0  0  0  0  0  0  0  0  0  0  0
   -1.2387   30.9979    9.0859 C   0  0  0  0  0  0  0  0  0  0  0  0
   -0.4636   29.8828    8.4448 C   0  0  0  0  0  0  0  0  0  0  0  0
   -4.6563   24.8513    4.7933 C   0  0  0  0  0  0  0  0  0  0  0  0
   -5.8215   23.8001    4.8460 C   0  0  0  0  0  0  0  0  0  0  0  0
   -7.1137   24.6006    5.2296 C   0  0  0  0  0  0  0  0  0  0  0  0
   -8.3160   23.7059    5.5324 C   0  0  0  0  0  0  0  0  0  0  0  0
   -8.0089   22.7477    6.6762 C   0  0  0  0  0  0  0  0  0  0  0  0
   -6.7459   21.9403    6.4075 C   0  0  0  0  0  0  0  0  0  0  0  0
   -5.5557   22.8391    6.0504 C   0  0  0  0  0  0  0  0  0  0  0  0
   -6.0830   23.0813    3.5546 N   0  0  0  0  0  0  0  0  0  0  0  0
   -5.2060   21.9547    3.2048 C   0  0  0  0  0  0  0  0  0  0  0  0
   -5.7934   21.1314    2.0532 C   0  0  0  0  0  0  0  0  0  0  0  0
   -6.0639   21.9937    0.8303 C   0  0  0  0  0  0  0  0  0  0  0  0
   -6.9139   23.1947    1.2173 C   0  0  0  0  0  0  0  0  0  0  0  0
   -6.2972   23.9578    2.3907 C   0  0  0  0  0  0  0  0  0  0  0  0
  6  7  1  0  0  0
  7  8  1  0  0  0
  7  5  1  0  0  0
  5 10  1  0  0  0
 10 11  1  0  0  0
 11 12  2  0  0  0
 11 14  1  0  0  0
 14 15  1  0  0  0
 15 16  1  0  0  0
  5  1  1  0  0  0
  1  2  2  0  0  0
  1  3  1  0  0  0
  3 17  1  0  0  0
 17 18  1  0  0  0
 18 24  1  0  0  0
 24 25  1  0  0  0
 25 26  1  0  0  0
 26 27  1  0  0  0
 27 28  1  0  0  0
 28 29  1  0  0  0
 18 19  1  0  0  0
 19 20  1  0  0  0
 20 21  1  0  0  0
 21 22  1  0  0  0
 22 23  1  0  0  0
 16 14  1  0  0  0
 23 18  1  0  0  0
 29 24  1  0  0  0
  8  9  1  0  0  0
 10 13  1  0  0  0
  3  4  1  0  0  0
M  END
> <minimizedAffinity>
-8.97262

$$$$
OCNT-2316349


 29 31  0  0  0  0  0  0  0  0999 V2000
   -2.1458   26.2116    5.0925 N   0  0  0  0  0  0  0  0  0  0  0  0
   -3.5279   26.4527    5.1176 C   0  0  0  0  0  0  0  0  0  0  0  0
   -4.0472   26.8661    6.1602 O   0  0  0  0  0  0  0  0  0  0  0  0
   -4.3687   26.2530    3.9301 C   0  0  0  0  0  0  0  0  0  0  0  0
   -4.6009   25.0927    3.2936 N   0  0  0  0  0  0  0  0  0  0  0  0
   -5.4451   25.4535    2.2897 N   0  0  0  0  0  0  0  0  0  0  0  0
   -5.7833   26.7679    2.2444 N   0  0  0  0  0  0  0  0  0  0  0  0
   -5.1088   27.2635    3.2819 C   0  0  0  0  0  0  0  0  0  0  0  0
   -5.9381   24.5134    1.3478 C   0  0  0  0  0  0  0  0  0  0  0  0
   -6.6484   24.9524    0.2207 C   0  0  0  0  0  0  0  0  0  0  0  0
   -7.1318   24.0235   -0.7033 C   0  0  0  0  0  0  0  0  0  0  0  0
   -6.9096   22.6606   -0.5070 C   0  0  0  0  0  0  0  0  0  0  0  0
   -6.2037   22.2201    0.6124 C   0  0  0  0  0  0  0  0  0  0  0  0
   -5.7166   23.1420    1.5411 C   0  0  0  0  0  0  0  0  0  0  0  0
    0.1131   25.6759    4.1696 C   0  0  0  0  0  0  0  0  0  0  0  0
   -1.3293   26.0679    3.8825 C   0  0  0  0  0  0  0  0  0  0  0  0
   -1.4241   26.3769    6.3593 C   0  0  0  0  0  0  0  0  0  0  0  0
   -1.2982   27.8486    6.7585 C   0  0  0  0  0  0  0  0  0  0  0  0
   -0.8281   28.6832    5.9893 O   0  0  0  0  0  0  0  0  0  0  0  0
   -1.8763   28.1242    7.9902 N   0  0  0  0  0  0  0  0  0  0  0  0
   -2.6582   27.5067    8.2248 H   0  0  0  0  0  0  0  0  0  0  0  0
   -1.9325   29.4309    8.5442 C   0  0  0  0  0  0  0  0  0  0  0  0
   -0.7907   30.1760    8.8935 C   0  0  0  0  0  0  0  0  0  0  0  0
    0.8108   29.5143    8.8791 Cl  0  0  0  0  0  0  0  0  0  0  0  0
   -0.9209   31.4705    9.4161 C   0  0  0  0  0  0  0  0  0  0  0  0
   -2.1814   32.0275    9.6239 C   0  0  0  0  0  0  0  0  0  0  0  0
   -3.3203   31.2836    9.3294 C   0  0  0  0  0  0  0  0  0  0  0  0
   -3.1966   29.9932    8.8043 C   0  0  0  0  0  0  0  0  0  0  0  0
   -4.6557   29.1332    8.4415 Cl  0  0  0  0  0  0  0  0  0  0  0  0
 15 16  1  0  0  0
 16  1  1  0  0  0
  1 17  1  0  0  0
 17 18  1  0  0  0
 18 19  2  0  0  0
 18 20  1  0  0  0
 20 22  1  0  0  0
 22 23  2  0  0  0
 23 24  1  0  0  0
 23 25  1  0  0  0
 25 26  2  0  0  0
 26 27  1  0  0  0
 27 28  2  0  0  0
 28 29  1  0  0  0
  1  2  1  0  0  0
  2  3  2  0  0  0
  2  4  1  0  0  0
  4  5  2  0  0  0
  5  6  1  0  0  0
  6  9  1  0  0  0
  9 10  2  0  0  0
 10 11  1  0  0  0
 11 12  2  0  0  0
 12 13  1  0  0  0
 13 14  2  0  0  0
  6  7  1  0  0  0
  7  8  2  0  0  0
 28 22  1  0  0  0
  8  4  1  0  0  0
 14  9  1  0  0  0
 20 21  1  0  0  0
M  END
> <minimizedAffinity>
-9.89445

$$$$
OCNT-2316354


 27 28  0  0  0  0  0  0  0  0999 V2000
   -5.3555   28.1103    5.6996 C   0  0  0  0  0  0  0  0  0  0  0  0
   -3.8960   27.6171    5.7212 C   0  0  0  0  0  0  0  0  0  0  0  0
   -3.2847   28.3599    6.8122 N   0  0  0  0  0  0  0  0  0  0  0  0
   -2.0601   28.0237    7.3250 C   0  0  0  0  0  0  0  0  0  0  0  0
   -1.3654   27.1284    6.8652 O   0  0  0  0  0  0  0  0  0  0  0  0
   -4.1750   29.3930    7.3343 C   0  0  0  0  0  0  0  0  0  0  0  0
   -5.2124   29.5676    6.2170 C   0  0  0  0  0  0  0  0  0  0  0  0
   -4.6814   30.4647    5.2333 O   0  0  0  0  0  0  0  0  0  0  0  0
   -3.7408   30.2430    5.1078 H   0  0  0  0  0  0  0  0  0  0  0  0
   -6.1195   27.8173    4.4838 N   0  0  0  0  0  0  0  0  0  0  0  0
   -6.8377   27.1226    4.6903 H   0  0  0  0  0  0  0  0  0  0  0  0
   -5.3386   27.3593    3.3392 C   0  0  0  0  0  0  0  0  0  0  0  0
   -6.5430   23.3504    2.1975 C   0  0  0  0  0  0  0  0  0  0  0  0
   -6.1715   24.2819    1.2249 C   0  0  0  0  0  0  0  0  0  0  0  0
   -5.7848   25.5770    1.5920 C   0  0  0  0  0  0  0  0  0  0  0  0
   -5.7678   25.9646    2.9381 C   0  0  0  0  0  0  0  0  0  0  0  0
   -6.1344   25.0294    3.9155 C   0  0  0  0  0  0  0  0  0  0  0  0
   -6.5171   23.7393    3.5435 C   0  0  0  0  0  0  0  0  0  0  0  0
   -6.8726   22.8342    4.5093 O   0  0  0  0  0  0  0  0  0  0  0  0
   -6.7854   23.2547    5.3784 H   0  0  0  0  0  0  0  0  0  0  0  0
   -5.9412   21.1529    1.4947 C   0  0  0  0  0  0  0  0  0  0  0  0
   -6.9343   22.0620    1.9451 O   0  0  0  0  0  0  0  0  0  0  0  0
   -1.7347   28.8041    8.3844 O   0  0  0  0  0  0  0  0  0  0  0  0
   -0.7559   29.8669    8.2558 C   0  0  0  0  0  0  0  0  0  0  0  0
   -0.7501   30.4512    6.8390 C   0  0  0  0  0  0  0  0  0  0  0  0
    0.6371   29.3973    8.6892 C   0  0  0  0  0  0  0  0  0  0  0  0
   -1.2326   30.9535    9.2319 C   0  0  0  0  0  0  0  0  0  0  0  0
 21 22  1  0  0  0
 22 13  1  0  0  0
 13 14  1  0  0  0
 14 15  2  0  0  0
 15 16  1  0  0  0
 16 12  1  0  0  0
 12 10  1  0  0  0
 10  1  1  0  0  0
  1  2  1  0  0  0
  2  3  1  0  0  0
  3  4  1  0  0  0
  4  5  2  0  0  0
  4 23  1  0  0  0
 23 24  1  0  0  0
 24 25  1  0  0  0
 24 26  1  0  0  0
 24 27  1  0  0  0
  3  6  1  0  0  0
  6  7  1  0  0  0
  7  8  1  0  0  0
 16 17  2  0  0  0
 17 18  1  0  0  0
 18 19  1  0  0  0
 18 13  2  0  0  0
  7  1  1  0  0  0
 10 11  1  0  0  0
  8  9  1  0  0  0
 19 20  1  0  0  0
M  END
> <minimizedAffinity>
-8.39131

$$$$
OCNT-2316356


 28 31  0  0  0  0  0  0  0  0999 V2000
   -5.0799   29.6901    5.1233 O   0  0  0  0  0  0  0  0  0  0  0  0
   -5.2942   29.0084    6.1231 C   0  0  0  0  0  0  0  0  0  0  0  0
   -4.6816   27.8056    6.3652 N   0  0  0  0  0  0  0  0  0  0  0  0
   -6.2186   29.4077    7.0968 N   0  0  0  0  0  0  0  0  0  0  0  0
   -6.5927   28.6264    8.2776 C   0  0  0  0  0  0  0  0  0  0  0  0
   -5.5609   28.6711    9.4110 C   0  0  0  0  0  0  0  0  0  0  0  0
   -5.5585   29.9644   10.2316 C   0  0  0  0  0  0  0  0  0  0  0  0
   -4.8621   31.1281    9.5610 C   0  0  0  0  0  0  0  0  0  0  0  0
   -3.5327   31.4153    9.9235 C   0  0  0  0  0  0  0  0  0  0  0  0
   -2.8359   32.4714    9.3345 C   0  0  0  0  0  0  0  0  0  0  0  0
   -3.4538   33.2541    8.3672 C   0  0  0  0  0  0  0  0  0  0  0  0
   -4.7679   32.9791    7.9889 C   0  0  0  0  0  0  0  0  0  0  0  0
   -5.4863   31.9231    8.5784 C   0  0  0  0  0  0  0  0  0  0  0  0
   -6.8877   31.6437    8.0877 C   0  0  0  0  0  0  0  0  0  0  0  0
   -6.9145   30.6855    6.8902 C   0  0  0  0  0  0  0  0  0  0  0  0
   -4.9067   27.2954    7.2051 H   0  0  0  0  0  0  0  0  0  0  0  0
   -3.6719   27.1540    5.6191 C   0  0  0  0  0  0  0  0  0  0  0  0
   -2.3122   27.2182    5.9111 C   0  0  0  0  0  0  0  0  0  0  0  0
   -1.4164   26.4749    5.1489 C   0  0  0  0  0  0  0  0  0  0  0  0
   -1.9168   25.6909    4.1247 C   0  0  0  0  0  0  0  0  0  0  0  0
   -3.2272   25.6102    3.8056 N   0  0  0  0  0  0  0  0  0  0  0  0
   -4.0958   26.3458    4.5346 C   0  0  0  0  0  0  0  0  0  0  0  0
   -5.4804   26.3340    4.2094 N   0  0  0  0  0  0  0  0  0  0  0  0
   -6.1531   25.0551    4.5433 C   0  0  0  0  0  0  0  0  0  0  0  0
   -5.9808   23.9619    3.4724 C   0  0  0  0  0  0  0  0  0  0  0  0
   -6.3150   24.4422    2.1602 O   0  0  0  0  0  0  0  0  0  0  0  0
   -5.4695   25.5520    1.8234 C   0  0  0  0  0  0  0  0  0  0  0  0
   -5.6968   26.7222    2.7923 C   0  0  0  0  0  0  0  0  0  0  0  0
  1  2  2  0  0  0
  2  3  1  0  0  0
  3 17  1  0  0  0
 17 18  1  0  0  0
 18 19  2  0  0  0
 19 20  1  0  0  0
 20 21  2  0  0  0
 21 22  1  0  0  0
 22 23  1  0  0  0
 23 24  1  0  0  0
 24 25  1  0  0  0
 25 26  1  0  0  0
 26 27  1  0  0  0
 27 28  1  0  0  0
  2  4  1  0  0  0
  4  5  1  0  0  0
  5  6  1  0  0  0
  6  7  1  0  0  0
  7  8  1  0  0  0
  8  9  2  0  0  0
  9 10  1  0  0  0
 10 11  2  0  0  0
 11 12  1  0  0  0
 12 13  2  0  0  0
 13 14  1  0  0  0
 14 15  1  0  0  0
 22 17  2  0  0  0
 28 23  1  0  0  0
 15  4  1  0  0  0
 13  8  1  0  0  0
  3 16  1  0  0  0
M  END
> <minimizedAffinity>
-8.87677

$$$$
OCNT-2316388


 26 28  0  0  0  0  0  0  0  0999 V2000
   -6.2679   28.4606    5.9819 C   0  0  0  0  0  0  0  0  0  0  0  0
   -7.6627   28.4393    6.6052 C   0  0  0  0  0  0  0  0  0  0  0  0
   -5.7311   24.0116    1.8683 C   0  0  0  0  0  0  0  0  0  0  0  0
   -5.8558   23.2791    3.0527 C   0  0  0  0  0  0  0  0  0  0  0  0
   -6.0071   23.9198    4.2905 C   0  0  0  0  0  0  0  0  0  0  0  0
   -6.0269   25.3115    4.2776 C   0  0  0  0  0  0  0  0  0  0  0  0
   -6.1611   26.1063    5.3712 O   0  0  0  0  0  0  0  0  0  0  0  0
   -6.1364   27.4018    4.9338 C   0  0  0  0  0  0  0  0  0  0  0  0
   -5.9815   27.4444    3.5562 C   0  0  0  0  0  0  0  0  0  0  0  0
   -5.9011   28.6613    2.7106 C   0  0  0  0  0  0  0  0  0  0  0  0
   -5.9091   26.0825    3.1297 C   0  0  0  0  0  0  0  0  0  0  0  0
   -5.7563   25.4161    1.8988 C   0  0  0  0  0  0  0  0  0  0  0  0
   -6.5443   22.5282    0.1922 C   0  0  0  0  0  0  0  0  0  0  0  0
   -5.5786   23.4830    0.6137 O   0  0  0  0  0  0  0  0  0  0  0  0
   -5.2300   28.2216    6.9690 N   0  0  0  0  0  0  0  0  0  0  0  0
   -4.0802   28.9766    6.9876 C   0  0  0  0  0  0  0  0  0  0  0  0
   -3.8435   29.8325    6.1459 O   0  0  0  0  0  0  0  0  0  0  0  0
   -3.2711   28.6099    8.0404 N   0  0  0  0  0  0  0  0  0  0  0  0
   -5.5547   27.8408    7.8452 H   0  0  0  0  0  0  0  0  0  0  0  0
   -3.5341   27.7540    8.5054 H   0  0  0  0  0  0  0  0  0  0  0  0
   -2.0468   29.1934    8.4258 C   0  0  0  0  0  0  0  0  0  0  0  0
   -0.8110   28.5722    8.2764 C   0  0  0  0  0  0  0  0  0  0  0  0
    0.3243   29.2539    8.6866 C   0  0  0  0  0  0  0  0  0  0  0  0
    0.3089   30.4930    9.2219 N   0  0  0  0  0  0  0  0  0  0  0  0
   -0.8990   31.0757    9.3531 C   0  0  0  0  0  0  0  0  0  0  0  0
   -2.0895   30.4761    8.9735 C   0  0  0  0  0  0  0  0  0  0  0  0
 13 14  1  0  0  0
 14  3  1  0  0  0
  3  4  2  0  0  0
  4  5  1  0  0  0
  5  6  2  0  0  0
  6  7  1  0  0  0
  7  8  1  0  0  0
  8  1  1  0  0  0
  1  2  1  0  0  0
  1 15  1  0  0  0
 15 16  1  0  0  0
 16 17  2  0  0  0
 16 18  1  0  0  0
 18 21  1  0  0  0
 21 22  2  0  0  0
 22 23  1  0  0  0
 23 24  2  0  0  0
 24 25  1  0  0  0
 25 26  2  0  0  0
  8  9  2  0  0  0
  9 10  1  0  0  0
  9 11  1  0  0  0
 11 12  2  0  0  0
 12  3  1  0  0  0
 11  6  1  0  0  0
 26 21  1  0  0  0
 15 19  1  0  0  0
 18 20  1  0  0  0
M  END
> <minimizedAffinity>
-8.70514

$$$$
OCNT-2316398


 23 26  0  0  0  0  0  0  0  0999 V2000
   -1.1654   26.3615    6.0447 O   0  0  0  0  0  0  0  0  0  0  0  0
   -2.0958   27.1644    6.0541 C   0  0  0  0  0  0  0  0  0  0  0  0
   -3.0996   27.1370    5.0985 N   0  0  0  0  0  0  0  0  0  0  0  0
   -3.8539   27.8101    5.1969 H   0  0  0  0  0  0  0  0  0  0  0  0
   -2.2678   28.2095    7.0426 C   0  0  0  0  0  0  0  0  0  0  0  0
   -1.3216   28.9840    7.5394 N   0  0  0  0  0  0  0  0  0  0  0  0
   -2.0352   29.7633    8.4127 C   0  0  0  0  0  0  0  0  0  0  0  0
   -3.3474   29.5097    8.4663 N   0  0  0  0  0  0  0  0  0  0  0  0
   -3.5077   28.4677    7.5473 O   0  0  0  0  0  0  0  0  0  0  0  0
   -1.3770   30.8690    9.2830 C   0  0  0  0  0  0  0  0  0  0  0  0
   -1.5017   32.3095    8.8459 C   0  0  0  0  0  0  0  0  0  0  0  0
   -2.2422   31.8298   10.0630 C   0  0  0  0  0  0  0  0  0  0  0  0
   -3.1379   26.1637    4.0269 C   0  0  0  0  0  0  0  0  0  0  0  0
   -4.6041   25.7800    3.7951 C   0  0  0  0  0  0  0  0  0  0  0  0
   -5.6765   26.7773    4.2759 C   0  0  0  0  0  0  0  0  0  0  0  0
   -5.7726   27.2386    2.8217 C   0  0  0  0  0  0  0  0  0  0  0  0
   -5.0122   26.0456    2.3828 N   0  0  0  0  0  0  0  0  0  0  0  0
   -5.9067   24.9864    1.8618 C   0  0  0  0  0  0  0  0  0  0  0  0
   -5.2327   23.6005    1.9796 C   0  0  0  0  0  0  0  0  0  0  0  0
   -5.7575   22.6059    0.9482 C   0  0  0  0  0  0  0  0  0  0  0  0
   -7.0954   22.9275    0.5881 O   0  0  0  0  0  0  0  0  0  0  0  0
   -7.1749   24.1494   -0.1464 C   0  0  0  0  0  0  0  0  0  0  0  0
   -6.2297   25.2295    0.3802 C   0  0  0  0  0  0  0  0  0  0  0  0
  1  2  2  0  0  0
  2  3  1  0  0  0
  3 13  1  0  0  0
 13 14  1  0  0  0
 14 15  1  0  0  0
 15 16  1  0  0  0
 16 17  1  0  0  0
 17 18  1  0  0  0
 18 19  1  0  0  0
 19 20  1  0  0  0
 20 21  1  0  0  0
 21 22  1  0  0  0
 22 23  1  0  0  0
  2  5  1  0  0  0
  5  6  2  0  0  0
  6  7  1  0  0  0
  7 10  1  0  0  0
 10 11  1  0  0  0
 11 12  1  0  0  0
  7  8  2  0  0  0
  8  9  1  0  0  0
 17 14  1  0  0  0
 23 18  1  0  0  0
  9  5  1  0  0  0
 12 10  1  0  0  0
  3  4  1  0  0  0
M  END
> <minimizedAffinity>
-8.29578

$$$$
OCNT-2316402


 27 28  0  0  0  0  0  0  0  0999 V2000
   -3.4316   26.7359    4.4332 N   0  0  0  0  0  0  0  0  0  0  0  0
   -2.9170   26.9283    5.6869 C   0  0  0  0  0  0  0  0  0  0  0  0
   -2.2794   26.0579    6.2747 O   0  0  0  0  0  0  0  0  0  0  0  0
   -3.1785   28.1747    6.2423 N   0  0  0  0  0  0  0  0  0  0  0  0
   -2.6985   28.3848    7.6121 C   0  0  0  0  0  0  0  0  0  0  0  0
   -2.5442   29.8715    7.9756 C   0  0  0  0  0  0  0  0  0  0  0  0
   -3.7719   30.6526    7.6983 N   0  0  0  0  0  0  0  0  0  0  0  0
   -4.0909   30.5060    6.2608 C   0  0  0  0  0  0  0  0  0  0  0  0
   -4.3176   29.0296    5.8397 C   0  0  0  0  0  0  0  0  0  0  0  0
   -5.6376   28.4859    6.4009 C   0  0  0  0  0  0  0  0  0  0  0  0
   -3.4637   27.5529    3.8456 H   0  0  0  0  0  0  0  0  0  0  0  0
   -3.1949   25.5031    3.7138 C   0  0  0  0  0  0  0  0  0  0  0  0
   -5.3917   24.2184    3.8523 C   0  0  0  0  0  0  0  0  0  0  0  0
   -6.5640   23.7553    3.2439 C   0  0  0  0  0  0  0  0  0  0  0  0
   -6.8250   24.0402    1.9000 C   0  0  0  0  0  0  0  0  0  0  0  0
   -5.9204   24.7958    1.1612 C   0  0  0  0  0  0  0  0  0  0  0  0
   -6.2539   25.1548   -0.4877 Cl  0  0  0  0  0  0  0  0  0  0  0  0
   -4.7505   25.2630    1.7526 C   0  0  0  0  0  0  0  0  0  0  0  0
   -4.4678   24.9692    3.0991 C   0  0  0  0  0  0  0  0  0  0  0  0
   -5.7992   23.0221    5.8764 C   0  0  0  0  0  0  0  0  0  0  0  0
   -5.0646   24.0133    5.1676 O   0  0  0  0  0  0  0  0  0  0  0  0
   -3.5902   32.0779    8.0643 C   0  0  0  0  0  0  0  0  0  0  0  0
   -4.9056   32.6807    8.6309 C   0  0  0  0  0  0  0  0  0  0  0  0
   -4.5897   33.8153    9.6060 C   0  0  0  0  0  0  0  0  0  0  0  0
   -5.7967   31.6403    9.3113 C   0  0  0  0  0  0  0  0  0  0  0  0
   -5.6471   33.2414    7.5376 O   0  0  0  0  0  0  0  0  0  0  0  0
   -5.5869   32.5651    6.8323 H   0  0  0  0  0  0  0  0  0  0  0  0
 20 21  1  0  0  0
 21 13  1  0  0  0
 13 14  1  0  0  0
 14 15  2  0  0  0
 15 16  1  0  0  0
 16 17  1  0  0  0
 16 18  2  0  0  0
 18 19  1  0  0  0
 19 12  1  0  0  0
 12  1  1  0  0  0
  1  2  1  0  0  0
  2  3  2  0  0  0
  2  4  1  0  0  0
  4  5  1  0  0  0
  5  6  1  0  0  0
  6  7  1  0  0  0
  7 22  1  0  0  0
 22 23  1  0  0  0
 23 24  1  0  0  0
 23 25  1  0  0  0
 23 26  1  0  0  0
  7  8  1  0  0  0
  8  9  1  0  0  0
  9 10  1  0  0  0
 19 13  2  0  0  0
  9  4  1  0  0  0
  1 11  1  0  0  0
 26 27  1  0  0  0
M  END
> <minimizedAffinity>
-8.18793

$$$$
OCNT-2316408


 32 35  0  0  0  0  0  0  0  0999 V2000
   -5.6932   30.7783    7.1154 C   0  0  0  0  0  0  0  0  0  0  0  0
   -6.7798   30.3223    7.4574 O   0  0  0  0  0  0  0  0  0  0  0  0
   -4.8920   30.2652    6.1163 N   0  0  0  0  0  0  0  0  0  0  0  0
   -4.0132   30.7483    5.9631 H   0  0  0  0  0  0  0  0  0  0  0  0
   -4.1564   31.9699    8.8295 C   0  0  0  0  0  0  0  0  0  0  0  0
   -3.7590   33.1749    9.4338 C   0  0  0  0  0  0  0  0  0  0  0  0
   -4.3558   34.3850    9.0811 C   0  0  0  0  0  0  0  0  0  0  0  0
   -5.3550   34.4087    8.1165 C   0  0  0  0  0  0  0  0  0  0  0  0
   -5.7566   33.2208    7.5040 C   0  0  0  0  0  0  0  0  0  0  0  0
   -5.1665   31.9873    7.8431 C   0  0  0  0  0  0  0  0  0  0  0  0
   -4.4651   29.5979    9.4540 C   0  0  0  0  0  0  0  0  0  0  0  0
   -3.5114   30.7262    9.2242 N   0  0  0  0  0  0  0  0  0  0  0  0
   -2.1622   30.2425    8.2647 S   0  0  0  0  0  0  0  0  0  0  0  0
   -0.7649   30.8270    9.2078 C   0  0  0  0  0  0  0  0  0  0  0  0
   -2.2128   30.9485    7.0027 O   0  0  0  0  0  0  0  0  0  0  0  0
   -2.1437   28.7938    8.2996 O   0  0  0  0  0  0  0  0  0  0  0  0
   -5.1133   29.1307    5.3128 C   0  0  0  0  0  0  0  0  0  0  0  0
   -4.4701   27.9473    5.6937 C   0  0  0  0  0  0  0  0  0  0  0  0
   -4.6357   26.7677    4.9549 C   0  0  0  0  0  0  0  0  0  0  0  0
   -5.4475   26.7475    3.8143 C   0  0  0  0  0  0  0  0  0  0  0  0
   -6.0910   27.9368    3.4445 C   0  0  0  0  0  0  0  0  0  0  0  0
   -5.9264   29.1165    4.1829 C   0  0  0  0  0  0  0  0  0  0  0  0
   -5.6525   25.5403    3.0043 C   0  0  0  0  0  0  0  0  0  0  0  0
   -6.0497   25.5148    1.7430 N   0  0  0  0  0  0  0  0  0  0  0  0
   -6.0999   24.1928    1.3794 C   0  0  0  0  0  0  0  0  0  0  0  0
   -6.4606   23.6097    0.1567 C   0  0  0  0  0  0  0  0  0  0  0  0
   -6.4234   22.2139    0.0424 C   0  0  0  0  0  0  0  0  0  0  0  0
   -6.0348   21.4175    1.1230 C   0  0  0  0  0  0  0  0  0  0  0  0
   -5.6718   21.9834    2.3510 C   0  0  0  0  0  0  0  0  0  0  0  0
   -5.7198   23.3765    2.4350 C   0  0  0  0  0  0  0  0  0  0  0  0
   -5.4404   24.2537    3.4502 N   0  0  0  0  0  0  0  0  0  0  0  0
   -5.1178   23.9959    4.3689 H   0  0  0  0  0  0  0  0  0  0  0  0
 11 12  1  0  0  0
 12  5  1  0  0  0
  5  6  2  0  0  0
  6  7  1  0  0  0
  7  8  2  0  0  0
  8  9  1  0  0  0
  9 10  2  0  0  0
 10  1  1  0  0  0
  1  2  2  0  0  0
  1  3  1  0  0  0
  3 17  1  0  0  0
 17 18  1  0  0  0
 18 19  2  0  0  0
 19 20  1  0  0  0
 20 23  1  0  0  0
 23 24  2  0  0  0
 24 25  1  0  0  0
 25 26  2  0  0  0
 26 27  1  0  0  0
 27 28  2  0  0  0
 28 29  1  0  0  0
 29 30  2  0  0  0
 30 31  1  0  0  0
 20 21  2  0  0  0
 21 22  1  0  0  0
 12 13  1  0  0  0
 13 14  1  0  0  0
 13 15  2  0  0  0
 13 16  2  0  0  0
 10  5  1  0  0  0
 22 17  2  0  0  0
 31 23  1  0  0  0
 30 25  1  0  0  0
  3  4  1  0  0  0
 31 32  1  0  0  0
M  END
> <minimizedAffinity>
-10.41828

$$$$
OCNT-2316412


 24 26  0  0  0  0  0  0  0  0999 V2000
   -3.1582   29.9717    9.2111 N   0  0  0  0  0  0  0  0  0  0  0  0
   -3.3100   30.1534   10.2035 H   0  0  0  0  0  0  0  0  0  0  0  0
   -4.3317   30.1070    8.5111 C   0  0  0  0  0  0  0  0  0  0  0  0
   -5.2818   30.8533    9.0896 N   0  0  0  0  0  0  0  0  0  0  0  0
   -6.4479   30.9793    8.4259 C   0  0  0  0  0  0  0  0  0  0  0  0
   -6.6947   30.3982    7.2093 C   0  0  0  0  0  0  0  0  0  0  0  0
   -7.8846   30.5565    6.6157 F   0  0  0  0  0  0  0  0  0  0  0  0
   -5.6629   29.6548    6.6779 C   0  0  0  0  0  0  0  0  0  0  0  0
   -4.4817   29.4994    7.3251 N   0  0  0  0  0  0  0  0  0  0  0  0
   -5.7411   28.9583    5.3902 C   0  0  0  0  0  0  0  0  0  0  0  0
   -5.5595   27.5957    5.2373 C   0  0  0  0  0  0  0  0  0  0  0  0
   -5.7273   27.0754    3.6129 S   0  0  0  0  0  0  0  0  0  0  0  0
   -6.0676   28.6620    3.0833 C   0  0  0  0  0  0  0  0  0  0  0  0
   -6.0516   29.5642    4.1232 C   0  0  0  0  0  0  0  0  0  0  0  0
   -1.9277   30.5480    8.6786 C   0  0  0  0  0  0  0  0  0  0  0  0
   -1.5080   31.8037    9.4507 C   0  0  0  0  0  0  0  0  0  0  0  0
   -0.8137   29.4760    8.6840 C   0  0  0  0  0  0  0  0  0  0  0  0
   -0.4923   26.2136    4.7506 C   0  0  0  0  0  0  0  0  0  0  0  0
   -0.8132   26.9829    5.9719 C   0  0  0  0  0  0  0  0  0  0  0  0
   -0.2489   28.1080    6.5288 C   0  0  0  0  0  0  0  0  0  0  0  0
   -1.0021   28.3613    7.6996 C   0  0  0  0  0  0  0  0  0  0  0  0
   -1.9729   27.4520    7.8624 N   0  0  0  0  0  0  0  0  0  0  0  0
   -1.8405   26.6367    6.8045 N   0  0  0  0  0  0  0  0  0  0  0  0
   -2.4878   25.8606    6.7133 H   0  0  0  0  0  0  0  0  0  0  0  0
 18 19  1  0  0  0
 19 20  2  0  0  0
 20 21  1  0  0  0
 21 17  1  0  0  0
 17 15  1  0  0  0
 15 16  1  0  0  0
 15  1  1  0  0  0
  1  3  1  0  0  0
  3  4  2  0  0  0
  4  5  1  0  0  0
  5  6  2  0  0  0
  6  7  1  0  0  0
  6  8  1  0  0  0
  8 10  1  0  0  0
 10 11  2  0  0  0
 11 12  1  0  0  0
 12 13  1  0  0  0
 13 14  2  0  0  0
  8  9  2  0  0  0
 21 22  2  0  0  0
 22 23  1  0  0  0
 23 19  1  0  0  0
  9  3  1  0  0  0
 14 10  1  0  0  0
  1  2  1  0  0  0
 23 24  1  0  0  0
M  END
> <minimizedAffinity>
-8.14060

$$$$
OCNT-2316420


 38 41  0  0  0  0  0  0  0  0999 V2000
   -5.0892   23.2426    2.7032 C   0  0  0  0  0  0  0  0  0  0  0  0
   -6.1009   22.7254    0.5144 C   0  0  0  0  0  0  0  0  0  0  0  0
   -5.3578   21.7646    0.3352 O   0  0  0  0  0  0  0  0  0  0  0  0
   -6.1431   23.4199    1.7043 N   0  0  0  0  0  0  0  0  0  0  0  0
   -6.5296   24.3583    1.6758 H   0  0  0  0  0  0  0  0  0  0  0  0
   -7.1504   24.7757   -0.4948 C   0  0  0  0  0  0  0  0  0  0  0  0
   -7.0683   23.2505   -0.5430 C   0  0  0  0  0  0  0  0  0  0  0  0
   -8.4547   22.6400   -0.3482 C   0  0  0  0  0  0  0  0  0  0  0  0
   -4.8471   24.5982    3.4061 C   0  0  0  0  0  0  0  0  0  0  0  0
   -3.7520   24.8750    3.8930 O   0  0  0  0  0  0  0  0  0  0  0  0
   -5.9651   25.4212    3.3928 N   0  0  0  0  0  0  0  0  0  0  0  0
   -6.8415   24.9943    3.1170 H   0  0  0  0  0  0  0  0  0  0  0  0
   -6.0411   26.7642    3.8179 C   0  0  0  0  0  0  0  0  0  0  0  0
   -5.9204   27.8603    2.9603 C   0  0  0  0  0  0  0  0  0  0  0  0
   -6.0227   29.1653    3.4534 C   0  0  0  0  0  0  0  0  0  0  0  0
   -6.2581   29.3870    4.8077 C   0  0  0  0  0  0  0  0  0  0  0  0
   -6.4081   28.2966    5.6637 C   0  0  0  0  0  0  0  0  0  0  0  0
   -6.2833   26.9928    5.1776 C   0  0  0  0  0  0  0  0  0  0  0  0
   -6.6116   28.4441    7.0170 O   0  0  0  0  0  0  0  0  0  0  0  0
   -5.7204   29.2359    7.7048 C   0  0  0  0  0  0  0  0  0  0  0  0
   -6.1065   30.3849    8.4002 C   0  0  0  0  0  0  0  0  0  0  0  0
   -5.1540   31.1195    9.1118 C   0  0  0  0  0  0  0  0  0  0  0  0
   -3.8190   30.6981    9.1410 C   0  0  0  0  0  0  0  0  0  0  0  0
   -3.4417   29.5363    8.4578 C   0  0  0  0  0  0  0  0  0  0  0  0
   -4.3945   28.8018    7.7473 C   0  0  0  0  0  0  0  0  0  0  0  0
   -2.8436   31.4508    9.8752 C   0  0  0  0  0  0  0  0  0  0  0  0
   -2.0572   32.0636   10.4699 N   0  0  0  0  0  0  0  0  0  0  0  0
   -5.4125   22.1287    3.7115 C   0  0  0  0  0  0  0  0  0  0  0  0
   -6.8616   21.7459    3.7957 C   0  0  0  0  0  0  0  0  0  0  0  0
   -7.5084   20.8249    2.9930 C   0  0  0  0  0  0  0  0  0  0  0  0
   -8.8183   20.7572    3.3822 N   0  0  0  0  0  0  0  0  0  0  0  0
   -9.0448   21.6056    4.4395 C   0  0  0  0  0  0  0  0  0  0  0  0
  -10.2220   21.8560    5.1555 C   0  0  0  0  0  0  0  0  0  0  0  0
  -10.1613   22.7812    6.2009 C   0  0  0  0  0  0  0  0  0  0  0  0
   -8.9690   23.4253    6.5179 C   0  0  0  0  0  0  0  0  0  0  0  0
   -7.8009   23.1596    5.7938 C   0  0  0  0  0  0  0  0  0  0  0  0
   -7.8342   22.2364    4.7281 C   0  0  0  0  0  0  0  0  0  0  0  0
   -9.5222   20.1647    2.9641 H   0  0  0  0  0  0  0  0  0  0  0  0
  6  7  1  0  0  0
  7  8  1  0  0  0
  7  2  1  0  0  0
  2  3  2  0  0  0
  2  4  1  0  0  0
  4  1  1  0  0  0
  1 28  1  0  0  0
 28 29  1  0  0  0
 29 30  2  0  0  0
 30 31  1  0  0  0
 31 32  1  0  0  0
 32 33  2  0  0  0
 33 34  1  0  0  0
 34 35  2  0  0  0
 35 36  1  0  0  0
 36 37  2  0  0  0
  1  9  1  0  0  0
  9 10  2  0  0  0
  9 11  1  0  0  0
 11 13  1  0  0  0
 13 14  2  0  0  0
 14 15  1  0  0  0
 15 16  2  0  0  0
 16 17  1  0  0  0
 17 19  1  0  0  0
 19 20  1  0  0  0
 20 21  1  0  0  0
 21 22  2  0  0  0
 22 23  1  0  0  0
 23 26  1  0  0  0
 26 27  3  0  0  0
 23 24  2  0  0  0
 24 25  1  0  0  0
 17 18  2  0  0  0
 37 29  1  0  0  0
 18 13  1  0  0  0
 37 32  1  0  0  0
 25 20  2  0  0  0
  4  5  1  0  0  0
 31 38  1  0  0  0
 11 12  1  0  0  0
M  END
> <minimizedAffinity>
-10.57983

$$$$
OCNT-2316424


 29 33  0  0  0  0  0  0  0  0999 V2000
   -5.1457   26.9585    2.4626 O   0  0  0  0  0  0  0  0  0  0  0  0
   -4.5094   25.9706    2.8169 C   0  0  0  0  0  0  0  0  0  0  0  0
   -4.7335   24.6602    2.4290 N   0  0  0  0  0  0  0  0  0  0  0  0
   -4.0179   23.4659    2.9114 C   0  0  0  0  0  0  0  0  0  0  0  0
   -4.8088   22.2255    2.4289 C   0  0  0  0  0  0  0  0  0  0  0  0
   -5.6919   22.8477    1.3819 C   0  0  0  0  0  0  0  0  0  0  0  0
   -6.4799   22.2070    0.4347 C   0  0  0  0  0  0  0  0  0  0  0  0
   -7.2693   22.9836   -0.4156 C   0  0  0  0  0  0  0  0  0  0  0  0
   -7.2601   24.3811   -0.3160 C   0  0  0  0  0  0  0  0  0  0  0  0
   -6.4493   25.0214    0.6247 C   0  0  0  0  0  0  0  0  0  0  0  0
   -5.6610   24.2441    1.4571 C   0  0  0  0  0  0  0  0  0  0  0  0
   -3.4123   26.2032    3.7793 C   0  0  0  0  0  0  0  0  0  0  0  0
   -2.1303   25.7469    3.4557 C   0  0  0  0  0  0  0  0  0  0  0  0
   -1.0607   25.9402    4.3356 C   0  0  0  0  0  0  0  0  0  0  0  0
   -1.3413   26.5934    5.5408 C   0  0  0  0  0  0  0  0  0  0  0  0
   -0.5399   26.9277    6.6023 N   0  0  0  0  0  0  0  0  0  0  0  0
   -1.1836   27.5614    7.5985 N   0  0  0  0  0  0  0  0  0  0  0  0
   -2.4466   27.6147    7.1685 C   0  0  0  0  0  0  0  0  0  0  0  0
   -2.6130   27.0372    5.8903 C   0  0  0  0  0  0  0  0  0  0  0  0
   -3.6826   26.8359    5.0025 C   0  0  0  0  0  0  0  0  0  0  0  0
    0.4528   26.7517    6.7073 H   0  0  0  0  0  0  0  0  0  0  0  0
   -5.5699   21.5951    3.6116 C   0  0  0  0  0  0  0  0  0  0  0  0
   -6.9885   22.1340    3.8701 C   0  0  0  0  0  0  0  0  0  0  0  0
   -8.0549   21.0158    3.9306 C   0  0  0  0  0  0  0  0  0  0  0  0
   -9.3575   21.5465    4.2102 O   0  0  0  0  0  0  0  0  0  0  0  0
   -9.3584   22.2747    5.4435 C   0  0  0  0  0  0  0  0  0  0  0  0
   -8.3218   23.4055    5.4197 C   0  0  0  0  0  0  0  0  0  0  0  0
   -6.9632   22.9054    5.1402 N   0  0  0  0  0  0  0  0  0  0  0  0
   -6.6846   22.2849    5.9003 H   0  0  0  0  0  0  0  0  0  0  0  0
  1  2  2  0  0  0
  2 12  1  0  0  0
 12 13  2  0  0  0
 13 14  1  0  0  0
 14 15  2  0  0  0
 15 16  1  0  0  0
 16 17  1  0  0  0
 17 18  2  0  0  0
 18 19  1  0  0  0
 19 20  2  0  0  0
  2  3  1  0  0  0
  3  4  1  0  0  0
  4  5  1  0  0  0
  5 22  1  0  0  0
 22 23  1  0  0  0
 23 24  1  0  0  0
 24 25  1  0  0  0
 25 26  1  0  0  0
 26 27  1  0  0  0
 27 28  1  0  0  0
  5  6  1  0  0  0
  6  7  2  0  0  0
  7  8  1  0  0  0
  8  9  2  0  0  0
  9 10  1  0  0  0
 10 11  2  0  0  0
 20 12  1  0  0  0
 11  3  1  0  0  0
 19 15  1  0  0  0
 28 23  1  0  0  0
 11  6  1  0  0  0
 16 21  1  0  0  0
 28 29  1  0  0  0
M  END
> <minimizedAffinity>
-10.75034

$$$$
