OCNT-2308638


 24 27  0  0  0  0  0  0  0  0999 V2000
   -3.2149   29.9089    6.5519 O   0  0  0  0  0  0  0  0  0  0  0  0
   -4.2945   30.4874    6.4692 C   0  0  0  0  0  0  0  0  0  0  0  0
   -5.4142   30.0267    5.7993 N   0  0  0  0  0  0  0  0  0  0  0  0
   -6.2374   30.6145    5.8211 H   0  0  0  0  0  0  0  0  0  0  0  0
   -4.4804   31.8404    7.1464 C   0  0  0  0  0  0  0  0  0  0  0  0
   -3.1992   32.3628    7.8296 C   0  0  0  0  0  0  0  0  0  0  0  0
   -3.6642   33.1088    9.0437 C   0  0  0  0  0  0  0  0  0  0  0  0
   -5.1061   32.7890    9.2873 C   0  0  0  0  0  0  0  0  0  0  0  0
   -5.5775   31.8352    8.2313 C   0  0  0  0  0  0  0  0  0  0  0  0
   -4.6935   34.1779    8.9537 C   0  0  0  0  0  0  0  0  0  0  0  0
   -5.0235   34.7469    7.7477 F   0  0  0  0  0  0  0  0  0  0  0  0
   -4.7505   35.1633    9.9101 F   0  0  0  0  0  0  0  0  0  0  0  0
   -5.5513   28.8199    5.0818 C   0  0  0  0  0  0  0  0  0  0  0  0
   -5.7262   28.9159    3.6975 C   0  0  0  0  0  0  0  0  0  0  0  0
   -5.8705   27.7659    2.9107 C   0  0  0  0  0  0  0  0  0  0  0  0
   -5.8453   26.4862    3.4852 C   0  0  0  0  0  0  0  0  0  0  0  0
   -5.6690   26.4035    4.8747 C   0  0  0  0  0  0  0  0  0  0  0  0
   -5.5232   27.5541    5.6628 C   0  0  0  0  0  0  0  0  0  0  0  0
   -5.9990   25.2803    2.6648 C   0  0  0  0  0  0  0  0  0  0  0  0
   -5.8876   25.2815    1.2834 C   0  0  0  0  0  0  0  0  0  0  0  0
   -6.0216   24.1885    0.4996 N   0  0  0  0  0  0  0  0  0  0  0  0
   -6.2784   23.0416    1.1436 C   0  0  0  0  0  0  0  0  0  0  0  0
   -6.4094   22.8978    2.4698 N   0  0  0  0  0  0  0  0  0  0  0  0
   -6.2683   24.0288    3.1960 C   0  0  0  0  0  0  0  0  0  0  0  0
  1  2  2  0  0  0
  2  3  1  0  0  0
  3 13  1  0  0  0
 13 14  1  0  0  0
 14 15  2  0  0  0
 15 16  1  0  0  0
 16 19  1  0  0  0
 19 20  2  0  0  0
 20 21  1  0  0  0
 21 22  2  0  0  0
 22 23  1  0  0  0
 23 24  2  0  0  0
 16 17  2  0  0  0
 17 18  1  0  0  0
  2  5  1  0  0  0
  5  6  1  0  0  0
  6  7  1  0  0  0
  7  8  1  0  0  0
  8  9  1  0  0  0
  8 10  1  0  0  0
 10 11  1  0  0  0
 10 12  1  0  0  0
 18 13  2  0  0  0
  9  5  1  0  0  0
 24 19  1  0  0  0
 10  7  1  0  0  0
  3  4  1  0  0  0
M  END
> <minimizedAffinity>
-9.85270

$$$$
OCNT-2308640


 33 36  0  0  0  0  0  0  0  0999 V2000
   -5.3210   27.1302    4.0322 C   0  0  0  0  0  0  0  0  0  0  0  0
   -5.9094   27.1465    2.7643 C   0  0  0  0  0  0  0  0  0  0  0  0
   -5.7976   26.0309    1.9314 C   0  0  0  0  0  0  0  0  0  0  0  0
   -5.1231   24.8896    2.3739 C   0  0  0  0  0  0  0  0  0  0  0  0
   -4.5377   24.8756    3.6417 C   0  0  0  0  0  0  0  0  0  0  0  0
   -4.6479   25.9890    4.4789 C   0  0  0  0  0  0  0  0  0  0  0  0
   -6.3280   29.1458    4.5824 O   0  0  0  0  0  0  0  0  0  0  0  0
   -5.4848   28.3130    4.9082 C   0  0  0  0  0  0  0  0  0  0  0  0
   -4.6929   28.4290    6.0500 N   0  0  0  0  0  0  0  0  0  0  0  0
   -4.9710   29.5437    6.9530 C   0  0  0  0  0  0  0  0  0  0  0  0
   -4.4202   29.2902    8.3506 C   0  0  0  0  0  0  0  0  0  0  0  0
   -2.9009   29.0355    8.3391 C   0  0  0  0  0  0  0  0  0  0  0  0
   -2.4004   28.5234    6.9764 C   0  0  0  0  0  0  0  0  0  0  0  0
   -3.4554   27.6763    6.2745 C   0  0  0  0  0  0  0  0  0  0  0  0
   -2.1162   30.2317    8.7951 C   0  0  0  0  0  0  0  0  0  0  0  0
   -0.7507   30.3712    8.9421 C   0  0  0  0  0  0  0  0  0  0  0  0
   -0.5358   31.6448    9.3819 N   0  0  0  0  0  0  0  0  0  0  0  0
   -1.6654   32.3515    9.5359 N   0  0  0  0  0  0  0  0  0  0  0  0
   -2.6246   31.4958    9.1790 C   0  0  0  0  0  0  0  0  0  0  0  0
    0.3477   32.0960    9.5963 H   0  0  0  0  0  0  0  0  0  0  0  0
   -5.0484   23.7661    1.5025 N   0  0  0  0  0  0  0  0  0  0  0  0
   -4.6401   23.9025    0.5771 H   0  0  0  0  0  0  0  0  0  0  0  0
   -6.3066   22.6398    1.4584 S   0  0  0  0  0  0  0  0  0  0  0  0
   -5.7743   21.3794    0.9827 O   0  0  0  0  0  0  0  0  0  0  0  0
   -7.4199   23.2645    0.7788 O   0  0  0  0  0  0  0  0  0  0  0  0
   -6.7581   22.4307    3.1599 C   0  0  0  0  0  0  0  0  0  0  0  0
   -8.0063   22.9201    3.5773 C   0  0  0  0  0  0  0  0  0  0  0  0
   -8.3963   22.7750    4.9056 C   0  0  0  0  0  0  0  0  0  0  0  0
   -9.9264   23.3684    5.4172 Cl  0  0  0  0  0  0  0  0  0  0  0  0
   -7.5543   22.1523    5.8229 C   0  0  0  0  0  0  0  0  0  0  0  0
   -6.3108   21.6700    5.4070 C   0  0  0  0  0  0  0  0  0  0  0  0
   -5.9041   21.8067    4.0739 C   0  0  0  0  0  0  0  0  0  0  0  0
   -4.3624   21.1477    3.6628 Cl  0  0  0  0  0  0  0  0  0  0  0  0
  7  8  2  0  0  0
  8  1  1  0  0  0
  1  2  1  0  0  0
  2  3  2  0  0  0
  3  4  1  0  0  0
  4 21  1  0  0  0
 21 23  1  0  0  0
 23 24  2  0  0  0
 23 25  2  0  0  0
 23 26  1  0  0  0
 26 27  1  0  0  0
 27 28  2  0  0  0
 28 29  1  0  0  0
 28 30  1  0  0  0
 30 31  2  0  0  0
 31 32  1  0  0  0
 32 33  1  0  0  0
  4  5  2  0  0  0
  5  6  1  0  0  0
  8  9  1  0  0  0
  9 10  1  0  0  0
 10 11  1  0  0  0
 11 12  1  0  0  0
 12 15  1  0  0  0
 15 16  2  0  0  0
 16 17  1  0  0  0
 17 18  1  0  0  0
 18 19  2  0  0  0
 12 13  1  0  0  0
 13 14  1  0  0  0
  6  1  2  0  0  0
 14  9  1  0  0  0
 32 26  2  0  0  0
 19 15  1  0  0  0
 21 22  1  0  0  0
 17 20  1  0  0  0
M  END
> <minimizedAffinity>
-10.05248

$$$$
OCNT-2308641


 29 32  0  0  0  0  0  0  0  0999 V2000
   -5.5084   29.0226    7.1131 C   0  0  0  0  0  0  0  0  0  0  0  0
   -6.3822   29.8856    7.0777 O   0  0  0  0  0  0  0  0  0  0  0  0
   -5.1395   28.2647    6.0169 N   0  0  0  0  0  0  0  0  0  0  0  0
   -4.6022   27.4266    6.2051 H   0  0  0  0  0  0  0  0  0  0  0  0
   -4.7980   28.6117    8.3986 C   0  0  0  0  0  0  0  0  0  0  0  0
   -1.2013   28.9456    7.9647 N   0  0  0  0  0  0  0  0  0  0  0  0
   -2.3996   28.2335    7.7646 C   0  0  0  0  0  0  0  0  0  0  0  0
   -2.5359   27.1238    7.2659 O   0  0  0  0  0  0  0  0  0  0  0  0
   -3.4290   29.0295    8.3008 N   0  0  0  0  0  0  0  0  0  0  0  0
   -2.8717   30.1851    8.8585 C   0  0  0  0  0  0  0  0  0  0  0  0
   -3.4648   31.2288    9.5328 C   0  0  0  0  0  0  0  0  0  0  0  0
   -2.6275   32.2605    9.9778 C   0  0  0  0  0  0  0  0  0  0  0  0
   -1.2387   32.2230    9.7432 C   0  0  0  0  0  0  0  0  0  0  0  0
   -0.6540   31.1515    9.0656 C   0  0  0  0  0  0  0  0  0  0  0  0
   -1.4925   30.1436    8.6343 C   0  0  0  0  0  0  0  0  0  0  0  0
    0.6268   29.2441    6.3530 C   0  0  0  0  0  0  0  0  0  0  0  0
    0.1084   28.4984    7.5676 C   0  0  0  0  0  0  0  0  0  0  0  0
   -5.9054   28.3297    4.8026 C   0  0  0  0  0  0  0  0  0  0  0  0
   -5.9262   27.0115    4.0903 C   0  0  0  0  0  0  0  0  0  0  0  0
   -5.7301   26.9144    2.7129 C   0  0  0  0  0  0  0  0  0  0  0  0
   -5.7351   25.6643    2.0934 C   0  0  0  0  0  0  0  0  0  0  0  0
   -5.9359   24.5326    2.8753 C   0  0  0  0  0  0  0  0  0  0  0  0
   -6.1459   24.6046    4.2126 N   0  0  0  0  0  0  0  0  0  0  0  0
   -6.1401   25.8301    4.7843 C   0  0  0  0  0  0  0  0  0  0  0  0
   -5.9021   23.2358    2.2934 N   0  0  0  0  0  0  0  0  0  0  0  0
   -5.8768   22.0052    2.9101 C   0  0  0  0  0  0  0  0  0  0  0  0
   -5.8906   21.0737    1.8984 C   0  0  0  0  0  0  0  0  0  0  0  0
   -5.9121   21.6840    0.6782 N   0  0  0  0  0  0  0  0  0  0  0  0
   -5.9066   22.9737    0.9418 C   0  0  0  0  0  0  0  0  0  0  0  0
 16 17  1  0  0  0
 17  6  1  0  0  0
  6  7  1  0  0  0
  7  8  2  0  0  0
  7  9  1  0  0  0
  9  5  1  0  0  0
  5  1  1  0  0  0
  1  2  2  0  0  0
  1  3  1  0  0  0
  3 18  1  0  0  0
 18 19  1  0  0  0
 19 20  2  0  0  0
 20 21  1  0  0  0
 21 22  2  0  0  0
 22 25  1  0  0  0
 25 26  1  0  0  0
 26 27  2  0  0  0
 27 28  1  0  0  0
 28 29  2  0  0  0
 22 23  1  0  0  0
 23 24  2  0  0  0
  9 10  1  0  0  0
 10 11  2  0  0  0
 11 12  1  0  0  0
 12 13  2  0  0  0
 13 14  1  0  0  0
 14 15  2  0  0  0
 15  6  1  0  0  0
 24 19  1  0  0  0
 15 10  1  0  0  0
 29 25  1  0  0  0
  3  4  1  0  0  0
M  END
> <minimizedAffinity>
-9.59825

$$$$
OCNT-2308647


 26 28  0  0  0  0  0  0  0  0999 V2000
   -6.4749   29.0668    5.7516 N   0  0  0  0  0  0  0  0  0  0  0  0
   -6.1023   29.6935    4.4869 C   0  0  0  0  0  0  0  0  0  0  0  0
   -6.0792   28.6437    3.3684 C   0  0  0  0  0  0  0  0  0  0  0  0
   -5.5125   27.2762    3.8109 C   0  0  0  0  0  0  0  0  0  0  0  0
   -4.6538   27.4546    5.0694 C   0  0  0  0  0  0  0  0  0  0  0  0
   -5.4546   28.1089    6.2038 C   0  0  0  0  0  0  0  0  0  0  0  0
   -4.7359   26.5843    2.6746 C   0  0  0  0  0  0  0  0  0  0  0  0
   -3.3304   26.6673    2.9258 O   0  0  0  0  0  0  0  0  0  0  0  0
   -3.1351   25.9465    3.5604 H   0  0  0  0  0  0  0  0  0  0  0  0
   -5.0430   25.1169    2.5829 C   0  0  0  0  0  0  0  0  0  0  0  0
   -4.7325   24.2247    3.5078 N   0  0  0  0  0  0  0  0  0  0  0  0
   -5.1709   23.0190    3.0278 C   0  0  0  0  0  0  0  0  0  0  0  0
   -5.7412   23.1678    1.7893 C   0  0  0  0  0  0  0  0  0  0  0  0
   -5.6364   24.5021    1.5055 N   0  0  0  0  0  0  0  0  0  0  0  0
   -6.0533   25.1254    0.2734 C   0  0  0  0  0  0  0  0  0  0  0  0
   -6.7760   30.0301    6.8202 C   0  0  0  0  0  0  0  0  0  0  0  0
   -6.4205   28.8124    9.8035 C   0  0  0  0  0  0  0  0  0  0  0  0
   -5.4624   29.6616    9.0496 C   0  0  0  0  0  0  0  0  0  0  0  0
   -4.2930   29.9979    9.6019 N   0  0  0  0  0  0  0  0  0  0  0  0
   -3.6826   30.7522    8.6660 N   0  0  0  0  0  0  0  0  0  0  0  0
   -4.4322   30.9077    7.5243 C   0  0  0  0  0  0  0  0  0  0  0  0
   -3.9777   31.6829    6.3407 C   0  0  0  0  0  0  0  0  0  0  0  0
   -5.6064   30.1981    7.7391 C   0  0  0  0  0  0  0  0  0  0  0  0
   -2.3404   31.2686    8.9335 C   0  0  0  0  0  0  0  0  0  0  0  0
   -1.2922   30.1695    8.7739 C   0  0  0  0  0  0  0  0  0  0  0  0
   -2.2468   31.9365   10.3070 C   0  0  0  0  0  0  0  0  0  0  0  0
 17 18  1  0  0  0
 18 19  2  0  0  0
 19 20  1  0  0  0
 20 24  1  0  0  0
 24 25  1  0  0  0
 24 26  1  0  0  0
 20 21  1  0  0  0
 21 22  1  0  0  0
 21 23  2  0  0  0
 23 16  1  0  0  0
 16  1  1  0  0  0
  1  2  1  0  0  0
  2  3  1  0  0  0
  3  4  1  0  0  0
  4  7  1  0  0  0
  7  8  1  0  0  0
  7 10  1  0  0  0
 10 11  2  0  0  0
 11 12  1  0  0  0
 12 13  2  0  0  0
 13 14  1  0  0  0
 14 15  1  0  0  0
  4  5  1  0  0  0
  5  6  1  0  0  0
 23 18  1  0  0  0
  6  1  1  0  0  0
 14 10  1  0  0  0
  8  9  1  0  0  0
M  END
> <minimizedAffinity>
-8.58081

$$$$
OCNT-2308660


 25 27  0  0  0  0  0  0  0  0999 V2000
   -2.9907   26.6669    5.1686 C   0  0  0  0  0  0  0  0  0  0  0  0
   -4.1679   26.2863    4.5569 C   0  0  0  0  0  0  0  0  0  0  0  0
   -3.8222   25.4666    3.5062 N   0  0  0  0  0  0  0  0  0  0  0  0
   -2.4440   25.3910    3.5407 C   0  0  0  0  0  0  0  0  0  0  0  0
   -1.9151   26.0923    4.5199 N   0  0  0  0  0  0  0  0  0  0  0  0
   -4.7014   24.8303    2.5795 C   0  0  0  0  0  0  0  0  0  0  0  0
   -5.4584   25.5889    1.6745 C   0  0  0  0  0  0  0  0  0  0  0  0
   -6.3191   24.9582    0.7681 C   0  0  0  0  0  0  0  0  0  0  0  0
   -6.4363   23.5674    0.7521 C   0  0  0  0  0  0  0  0  0  0  0  0
   -7.5183   22.8630   -0.3942 Cl  0  0  0  0  0  0  0  0  0  0  0  0
   -5.6867   22.8032    1.6494 C   0  0  0  0  0  0  0  0  0  0  0  0
   -5.7769   21.0773    1.6913 Cl  0  0  0  0  0  0  0  0  0  0  0  0
   -4.8233   23.4314    2.5588 C   0  0  0  0  0  0  0  0  0  0  0  0
   -2.3370   27.1707    7.3875 O   0  0  0  0  0  0  0  0  0  0  0  0
   -2.8521   27.5365    6.3372 C   0  0  0  0  0  0  0  0  0  0  0  0
   -3.3496   28.8005    6.1120 N   0  0  0  0  0  0  0  0  0  0  0  0
   -3.5927   28.9900    5.1426 H   0  0  0  0  0  0  0  0  0  0  0  0
   -3.1159   29.8926    7.0322 C   0  0  0  0  0  0  0  0  0  0  0  0
   -1.8302   30.6490    6.6997 C   0  0  0  0  0  0  0  0  0  0  0  0
   -0.6350   30.0580    7.3609 C   0  0  0  0  0  0  0  0  0  0  0  0
    0.4246   29.3966    6.7769 C   0  0  0  0  0  0  0  0  0  0  0  0
    1.2680   29.0484    7.7912 N   0  0  0  0  0  0  0  0  0  0  0  0
    0.8325   29.4347    9.0006 N   0  0  0  0  0  0  0  0  0  0  0  0
   -0.3241   30.0465    8.7400 C   0  0  0  0  0  0  0  0  0  0  0  0
    2.1508   28.5514    7.7330 H   0  0  0  0  0  0  0  0  0  0  0  0
 14 15  2  0  0  0
 15 16  1  0  0  0
 16 18  1  0  0  0
 18 19  1  0  0  0
 19 20  1  0  0  0
 20 21  2  0  0  0
 21 22  1  0  0  0
 22 23  1  0  0  0
 23 24  2  0  0  0
 15  1  1  0  0  0
  1  2  2  0  0  0
  2  3  1  0  0  0
  3  6  1  0  0  0
  6  7  1  0  0  0
  7  8  2  0  0  0
  8  9  1  0  0  0
  9 10  1  0  0  0
  9 11  2  0  0  0
 11 12  1  0  0  0
 11 13  1  0  0  0
  3  4  1  0  0  0
  4  5  2  0  0  0
 24 20  1  0  0  0
  5  1  1  0  0  0
 13  6  2  0  0  0
 16 17  1  0  0  0
 22 25  1  0  0  0
M  END
> <minimizedAffinity>
-8.82443

$$$$
OCNT-2308661


 26 29  0  0  0  0  0  0  0  0999 V2000
   -3.3014   25.5233    3.9931 C   0  0  0  0  0  0  0  0  0  0  0  0
   -3.5618   25.7578    5.3261 C   0  0  0  0  0  0  0  0  0  0  0  0
   -2.4039   26.3077    5.7955 N   0  0  0  0  0  0  0  0  0  0  0  0
   -1.4868   26.4251    4.8239 N   0  0  0  0  0  0  0  0  0  0  0  0
   -2.0224   25.9370    3.7139 N   0  0  0  0  0  0  0  0  0  0  0  0
   -5.9206   23.7465    1.1002 C   0  0  0  0  0  0  0  0  0  0  0  0
   -5.6893   25.1242    1.0875 C   0  0  0  0  0  0  0  0  0  0  0  0
   -4.8339   25.7132    2.0300 C   0  0  0  0  0  0  0  0  0  0  0  0
   -4.1917   24.9387    3.0048 C   0  0  0  0  0  0  0  0  0  0  0  0
   -4.4242   23.5576    3.0157 C   0  0  0  0  0  0  0  0  0  0  0  0
   -5.2775   22.9691    2.0755 C   0  0  0  0  0  0  0  0  0  0  0  0
   -5.5116   21.2563    2.1577 Cl  0  0  0  0  0  0  0  0  0  0  0  0
   -7.8029   23.8187   -0.3709 C   0  0  0  0  0  0  0  0  0  0  0  0
   -6.7380   23.0872    0.2207 O   0  0  0  0  0  0  0  0  0  0  0  0
   -2.1135   26.7521    7.1407 C   0  0  0  0  0  0  0  0  0  0  0  0
   -2.2414   28.2519    7.3295 C   0  0  0  0  0  0  0  0  0  0  0  0
   -1.4847   28.8076    8.2398 N   0  0  0  0  0  0  0  0  0  0  0  0
   -1.5853   30.1623    8.3869 C   0  0  0  0  0  0  0  0  0  0  0  0
   -0.9717   31.0457    9.2444 C   0  0  0  0  0  0  0  0  0  0  0  0
   -1.4852   32.3074    8.9006 C   0  0  0  0  0  0  0  0  0  0  0  0
   -2.3624   32.2553    7.8953 N   0  0  0  0  0  0  0  0  0  0  0  0
   -2.4290   30.9311    7.5893 N   0  0  0  0  0  0  0  0  0  0  0  0
   -3.2157   30.3358    6.5975 C   0  0  0  0  0  0  0  0  0  0  0  0
   -4.0329   31.1332    5.8126 O   0  0  0  0  0  0  0  0  0  0  0  0
   -3.1683   29.0096    6.4184 C   0  0  0  0  0  0  0  0  0  0  0  0
   -3.9122   32.0465    6.1535 H   0  0  0  0  0  0  0  0  0  0  0  0
 13 14  1  0  0  0
 14  6  1  0  0  0
  6  7  1  0  0  0
  7  8  2  0  0  0
  8  9  1  0  0  0
  9  1  1  0  0  0
  1  2  2  0  0  0
  2  3  1  0  0  0
  3 15  1  0  0  0
 15 16  1  0  0  0
 16 17  2  0  0  0
 17 18  1  0  0  0
 18 19  2  0  0  0
 19 20  1  0  0  0
 20 21  2  0  0  0
 21 22  1  0  0  0
 22 23  1  0  0  0
 23 24  1  0  0  0
 23 25  2  0  0  0
  3  4  1  0  0  0
  4  5  2  0  0  0
  9 10  2  0  0  0
 10 11  1  0  0  0
 11 12  1  0  0  0
 11  6  2  0  0  0
  5  1  1  0  0  0
 25 16  1  0  0  0
 22 18  1  0  0  0
 24 26  1  0  0  0
M  END
> <minimizedAffinity>
-9.41461

$$$$
OCNT-2308666


 29 32  0  0  0  0  0  0  0  0999 V2000
   -2.5915   26.7064    5.9874 C   0  0  0  0  0  0  0  0  0  0  0  0
   -1.1335   26.2624    5.9613 C   0  0  0  0  0  0  0  0  0  0  0  0
   -0.9220   26.1210    4.4735 C   0  0  0  0  0  0  0  0  0  0  0  0
   -2.0024   26.1987    3.7512 N   0  0  0  0  0  0  0  0  0  0  0  0
   -3.0322   26.4661    4.6168 N   0  0  0  0  0  0  0  0  0  0  0  0
   -4.3645   26.4261    4.2336 C   0  0  0  0  0  0  0  0  0  0  0  0
   -5.2823   26.5417    5.0454 O   0  0  0  0  0  0  0  0  0  0  0  0
   -2.9465   30.8803    7.1370 C   0  0  0  0  0  0  0  0  0  0  0  0
   -4.0942   30.1265    6.8988 C   0  0  0  0  0  0  0  0  0  0  0  0
   -3.9888   28.7792    6.5327 C   0  0  0  0  0  0  0  0  0  0  0  0
   -2.7342   28.1611    6.4040 C   0  0  0  0  0  0  0  0  0  0  0  0
   -1.5872   28.9288    6.6459 C   0  0  0  0  0  0  0  0  0  0  0  0
   -1.6963   30.2748    7.0058 C   0  0  0  0  0  0  0  0  0  0  0  0
   -2.8871   32.4837    8.8900 C   0  0  0  0  0  0  0  0  0  0  0  0
   -2.9087   32.1988    7.4970 O   0  0  0  0  0  0  0  0  0  0  0  0
    0.4214   25.8734    3.8989 C   0  0  0  0  0  0  0  0  0  0  0  0
    1.1010   24.6978    4.2426 C   0  0  0  0  0  0  0  0  0  0  0  0
    2.3668   24.4376    3.7146 C   0  0  0  0  0  0  0  0  0  0  0  0
    2.9594   25.3493    2.8431 C   0  0  0  0  0  0  0  0  0  0  0  0
    2.2888   26.5221    2.4989 C   0  0  0  0  0  0  0  0  0  0  0  0
    1.0220   26.7873    3.0253 C   0  0  0  0  0  0  0  0  0  0  0  0
   -4.5764   26.2004    2.7493 C   0  0  0  0  0  0  0  0  0  0  0  0
   -4.8697   24.8173    2.4142 N   0  0  0  0  0  0  0  0  0  0  0  0
   -4.5748   23.7485    3.2132 C   0  0  0  0  0  0  0  0  0  0  0  0
   -5.0403   22.6287    2.7127 N   0  0  0  0  0  0  0  0  0  0  0  0
   -5.6418   22.9781    1.5272 C   0  0  0  0  0  0  0  0  0  0  0  0
   -6.2625   21.9420    0.6709 C   0  0  0  0  0  0  0  0  0  0  0  0
   -5.5520   24.3442    1.3175 C   0  0  0  0  0  0  0  0  0  0  0  0
   -6.0268   25.1950    0.2010 C   0  0  0  0  0  0  0  0  0  0  0  0
 14 15  1  0  0  0
 15  8  1  0  0  0
  8  9  1  0  0  0
  9 10  2  0  0  0
 10 11  1  0  0  0
 11  1  1  0  0  0
  1  2  1  0  0  0
  2  3  1  0  0  0
  3 16  1  0  0  0
 16 17  2  0  0  0
 17 18  1  0  0  0
 18 19  2  0  0  0
 19 20  1  0  0  0
 20 21  2  0  0  0
  3  4  2  0  0  0
  4  5  1  0  0  0
  5  6  1  0  0  0
  6  7  2  0  0  0
  6 22  1  0  0  0
 22 23  1  0  0  0
 23 24  1  0  0  0
 24 25  2  0  0  0
 25 26  1  0  0  0
 26 27  1  0  0  0
 26 28  2  0  0  0
 28 29  1  0  0  0
 11 12  2  0  0  0
 12 13  1  0  0  0
 13  8  2  0  0  0
  5  1  1  0  0  0
 28 23  1  0  0  0
 21 16  1  0  0  0
M  END
> <minimizedAffinity>
-9.68958

$$$$
OCNT-2308676


 29 32  0  0  0  0  0  0  0  0999 V2000
   -7.7833   30.6414    6.7362 C   0  0  0  0  0  0  0  0  0  0  0  0
   -6.4773   29.9205    6.5926 C   0  0  0  0  0  0  0  0  0  0  0  0
   -6.3680   28.8393    5.7399 C   0  0  0  0  0  0  0  0  0  0  0  0
   -5.1375   28.2127    5.6395 C   0  0  0  0  0  0  0  0  0  0  0  0
   -4.0826   28.6815    6.3289 N   0  0  0  0  0  0  0  0  0  0  0  0
   -4.2663   29.7387    7.1417 C   0  0  0  0  0  0  0  0  0  0  0  0
   -5.4364   30.3771    7.3086 N   0  0  0  0  0  0  0  0  0  0  0  0
   -4.9626   27.1243    4.7719 N   0  0  0  0  0  0  0  0  0  0  0  0
   -3.5576   26.7323    4.5611 C   0  0  0  0  0  0  0  0  0  0  0  0
   -3.4554   25.4273    3.7707 C   0  0  0  0  0  0  0  0  0  0  0  0
   -4.6296   25.2814    2.8055 C   0  0  0  0  0  0  0  0  0  0  0  0
   -5.9510   25.2316    3.5907 C   0  0  0  0  0  0  0  0  0  0  0  0
   -5.8970   26.0076    4.9075 C   0  0  0  0  0  0  0  0  0  0  0  0
   -4.5355   24.0537    2.0678 O   0  0  0  0  0  0  0  0  0  0  0  0
   -5.5127   23.8650    1.1143 C   0  0  0  0  0  0  0  0  0  0  0  0
   -6.0030   22.5760    0.9502 C   0  0  0  0  0  0  0  0  0  0  0  0
   -6.9578   22.2635    0.0386 N   0  0  0  0  0  0  0  0  0  0  0  0
   -7.3986   23.3037   -0.7033 C   0  0  0  0  0  0  0  0  0  0  0  0
   -6.9077   24.5900   -0.5431 C   0  0  0  0  0  0  0  0  0  0  0  0
   -5.9535   24.9002    0.3655 N   0  0  0  0  0  0  0  0  0  0  0  0
   -3.0999   30.2326    7.9043 C   0  0  0  0  0  0  0  0  0  0  0  0
   -3.2234   31.2848    8.8358 C   0  0  0  0  0  0  0  0  0  0  0  0
   -2.1274   31.7609    9.5640 C   0  0  0  0  0  0  0  0  0  0  0  0
   -0.8696   31.1943    9.3794 C   0  0  0  0  0  0  0  0  0  0  0  0
   -0.7191   30.1494    8.4616 C   0  0  0  0  0  0  0  0  0  0  0  0
   -1.8186   29.6718    7.7314 C   0  0  0  0  0  0  0  0  0  0  0  0
    0.6052   29.5469    8.2613 N   0  0  0  0  0  0  0  0  0  0  0  0
    1.2948   29.3243    9.2673 O   0  0  0  0  0  0  0  0  0  0  0  0
    0.9586   29.2960    7.1005 O   0  0  0  0  0  0  0  0  0  0  0  0
  1  2  1  0  0  0
  2  3  1  0  0  0
  3  4  2  0  0  0
  4  8  1  0  0  0
  8  9  1  0  0  0
  9 10  1  0  0  0
 10 11  1  0  0  0
 11 14  1  0  0  0
 14 15  1  0  0  0
 15 16  2  0  0  0
 16 17  1  0  0  0
 17 18  2  0  0  0
 18 19  1  0  0  0
 19 20  2  0  0  0
 11 12  1  0  0  0
 12 13  1  0  0  0
  4  5  1  0  0  0
  5  6  2  0  0  0
  6 21  1  0  0  0
 21 22  1  0  0  0
 22 23  2  0  0  0
 23 24  1  0  0  0
 24 25  2  0  0  0
 25 27  1  0  0  0
 27 28  2  0  0  0
 27 29  1  0  0  0
 25 26  1  0  0  0
  6  7  1  0  0  0
  7  2  2  0  0  0
 13  8  1  0  0  0
 26 21  2  0  0  0
 20 15  1  0  0  0
M  CHG 1  27   1
M  CHG 1  29  -1
M  END
> <minimizedAffinity>
-9.85681

$$$$
OCNT-2308682


 29 33  0  0  0  0  0  0  0  0999 V2000
   -3.1126   25.1770    2.1822 O   0  0  0  0  0  0  0  0  0  0  0  0
   -3.5705   25.8847    3.0759 C   0  0  0  0  0  0  0  0  0  0  0  0
   -2.7003   26.2980    4.1916 C   0  0  0  0  0  0  0  0  0  0  0  0
   -1.3719   25.8432    4.2248 C   0  0  0  0  0  0  0  0  0  0  0  0
   -0.5384   26.1938    5.2830 C   0  0  0  0  0  0  0  0  0  0  0  0
   -1.0321   26.9912    6.3096 C   0  0  0  0  0  0  0  0  0  0  0  0
   -2.3552   27.4463    6.2758 C   0  0  0  0  0  0  0  0  0  0  0  0
   -3.2010   27.1138    5.2063 C   0  0  0  0  0  0  0  0  0  0  0  0
   -4.6175   27.5517    5.0828 C   0  0  0  0  0  0  0  0  0  0  0  0
   -5.3814   27.1499    4.1077 N   0  0  0  0  0  0  0  0  0  0  0  0
   -4.8846   26.3257    3.1287 N   0  0  0  0  0  0  0  0  0  0  0  0
   -5.2265   28.4599    6.0358 C   0  0  0  0  0  0  0  0  0  0  0  0
   -4.8284   29.6597    6.4061 N   0  0  0  0  0  0  0  0  0  0  0  0
   -5.7895   30.0334    7.3136 C   0  0  0  0  0  0  0  0  0  0  0  0
   -6.7641   29.1332    7.4959 N   0  0  0  0  0  0  0  0  0  0  0  0
   -6.3964   28.0868    6.6471 O   0  0  0  0  0  0  0  0  0  0  0  0
   -5.7723   31.3340    8.0199 C   0  0  0  0  0  0  0  0  0  0  0  0
   -4.4750   31.5615    8.6223 N   0  0  0  0  0  0  0  0  0  0  0  0
   -3.5886   32.5569    8.3416 C   0  0  0  0  0  0  0  0  0  0  0  0
   -2.4981   32.3865    9.0526 N   0  0  0  0  0  0  0  0  0  0  0  0
   -2.7628   31.2464    9.7556 C   0  0  0  0  0  0  0  0  0  0  0  0
   -3.9561   30.6950    9.5181 N   0  0  0  0  0  0  0  0  0  0  0  0
   -5.7954   26.0028    2.0323 C   0  0  0  0  0  0  0  0  0  0  0  0
   -6.1392   24.5314    1.9942 C   0  0  0  0  0  0  0  0  0  0  0  0
   -6.0754   23.8158    0.7899 C   0  0  0  0  0  0  0  0  0  0  0  0
   -6.4088   22.4611    0.7530 C   0  0  0  0  0  0  0  0  0  0  0  0
   -6.8155   21.8103    1.9165 C   0  0  0  0  0  0  0  0  0  0  0  0
   -6.8949   22.5140    3.1168 C   0  0  0  0  0  0  0  0  0  0  0  0
   -6.5623   23.8690    3.1556 C   0  0  0  0  0  0  0  0  0  0  0  0
  1  2  2  0  0  0
  2  3  1  0  0  0
  3  4  2  0  0  0
  4  5  1  0  0  0
  5  6  2  0  0  0
  6  7  1  0  0  0
  7  8  2  0  0  0
  8  9  1  0  0  0
  9 12  1  0  0  0
 12 13  2  0  0  0
 13 14  1  0  0  0
 14 17  1  0  0  0
 17 18  1  0  0  0
 18 19  1  0  0  0
 19 20  2  0  0  0
 20 21  1  0  0  0
 21 22  2  0  0  0
 14 15  2  0  0  0
 15 16  1  0  0  0
  9 10  2  0  0  0
 10 11  1  0  0  0
 11 23  1  0  0  0
 23 24  1  0  0  0
 24 25  2  0  0  0
 25 26  1  0  0  0
 26 27  2  0  0  0
 27 28  1  0  0  0
 28 29  2  0  0  0
 11  2  1  0  0  0
 29 24  1  0  0  0
  8  3  1  0  0  0
 16 12  1  0  0  0
 22 18  1  0  0  0
M  END
> <minimizedAffinity>
-9.36274

$$$$
OCNT-2308683


 30 33  0  0  0  0  0  0  0  0999 V2000
   -6.1760   24.1683    3.3355 C   0  0  0  0  0  0  0  0  0  0  0  0
   -6.9049   23.4704    2.1646 C   0  0  0  0  0  0  0  0  0  0  0  0
   -6.5040   24.2824    0.9391 C   0  0  0  0  0  0  0  0  0  0  0  0
   -5.0704   24.6732    1.2490 C   0  0  0  0  0  0  0  0  0  0  0  0
   -5.0921   24.9252    2.6795 N   0  0  0  0  0  0  0  0  0  0  0  0
   -4.1722   25.7943    3.2382 C   0  0  0  0  0  0  0  0  0  0  0  0
   -3.1985   26.1846    2.6031 O   0  0  0  0  0  0  0  0  0  0  0  0
   -4.4751   26.1732    4.5270 N   0  0  0  0  0  0  0  0  0  0  0  0
   -5.4586   26.1777    4.7444 H   0  0  0  0  0  0  0  0  0  0  0  0
   -3.6420   26.8762    5.4221 C   0  0  0  0  0  0  0  0  0  0  0  0
   -2.4955   26.2193    5.8818 C   0  0  0  0  0  0  0  0  0  0  0  0
   -1.6123   26.8587    6.7558 C   0  0  0  0  0  0  0  0  0  0  0  0
   -1.8534   28.1734    7.1600 C   0  0  0  0  0  0  0  0  0  0  0  0
   -0.9419   28.7633    8.0461 N   0  0  0  0  0  0  0  0  0  0  0  0
   -0.9053   30.0802    8.4132 C   0  0  0  0  0  0  0  0  0  0  0  0
   -0.0892   30.4416    9.2639 O   0  0  0  0  0  0  0  0  0  0  0  0
   -1.7596   31.0756    7.6626 C   0  0  0  0  0  0  0  0  0  0  0  0
   -3.4175   30.4728    7.2854 S   0  0  0  0  0  0  0  0  0  0  0  0
   -2.9970   28.8412    6.7072 C   0  0  0  0  0  0  0  0  0  0  0  0
   -3.8851   28.1875    5.8393 C   0  0  0  0  0  0  0  0  0  0  0  0
   -0.2373   28.1883    8.4904 H   0  0  0  0  0  0  0  0  0  0  0  0
   -5.7019   23.2065    4.4650 C   0  0  0  0  0  0  0  0  0  0  0  0
   -6.8156   22.9825    5.4837 C   0  0  0  0  0  0  0  0  0  0  0  0
   -6.5797   22.1485    6.5912 C   0  0  0  0  0  0  0  0  0  0  0  0
   -7.5680   21.9471    7.5562 C   0  0  0  0  0  0  0  0  0  0  0  0
   -8.8034   22.5769    7.4315 C   0  0  0  0  0  0  0  0  0  0  0  0
   -9.0531   23.4067    6.3414 C   0  0  0  0  0  0  0  0  0  0  0  0
   -8.0673   23.6106    5.3738 C   0  0  0  0  0  0  0  0  0  0  0  0
   -4.6842   20.9670    3.5056 N   0  0  0  0  0  0  0  0  0  0  0  0
   -5.1279   21.9487    3.9393 C   0  0  0  0  0  0  0  0  0  0  0  0
 29 30  3  0  0  0
 30 22  1  0  0  0
 22 23  1  0  0  0
 23 24  2  0  0  0
 24 25  1  0  0  0
 25 26  2  0  0  0
 26 27  1  0  0  0
 27 28  2  0  0  0
 22  1  1  0  0  0
  1  2  1  0  0  0
  2  3  1  0  0  0
  3  4  1  0  0  0
  4  5  1  0  0  0
  5  6  1  0  0  0
  6  7  2  0  0  0
  6  8  1  0  0  0
  8 10  1  0  0  0
 10 11  1  0  0  0
 11 12  2  0  0  0
 12 13  1  0  0  0
 13 14  1  0  0  0
 14 15  1  0  0  0
 15 16  2  0  0  0
 15 17  1  0  0  0
 17 18  1  0  0  0
 18 19  1  0  0  0
 19 20  1  0  0  0
 28 23  1  0  0  0
  5  1  1  0  0  0
 20 10  2  0  0  0
 19 13  2  0  0  0
  8  9  1  0  0  0
 14 21  1  0  0  0
M  END
> <minimizedAffinity>
-9.85551

$$$$
OCNT-2308684


 34 37  0  0  0  0  0  0  0  0999 V2000
   -2.8525   25.3501    3.7576 N   0  0  0  0  0  0  0  0  0  0  0  0
   -4.0699   25.9166    3.4422 C   0  0  0  0  0  0  0  0  0  0  0  0
   -4.2310   27.1033    3.1933 O   0  0  0  0  0  0  0  0  0  0  0  0
   -2.7701   24.3423    3.8104 H   0  0  0  0  0  0  0  0  0  0  0  0
   -5.2098   24.9708    3.4125 C   0  0  0  0  0  0  0  0  0  0  0  0
   -5.6623   24.4723    4.6368 C   0  0  0  0  0  0  0  0  0  0  0  0
   -6.7237   23.5838    4.6387 C   0  0  0  0  0  0  0  0  0  0  0  0
   -7.3082   23.1845    3.4831 N   0  0  0  0  0  0  0  0  0  0  0  0
   -6.8845   23.6784    2.3065 C   0  0  0  0  0  0  0  0  0  0  0  0
   -7.5242   23.2559    1.1484 C   0  0  0  0  0  0  0  0  0  0  0  0
   -7.1446   23.7116   -0.1160 C   0  0  0  0  0  0  0  0  0  0  0  0
   -6.0977   24.6133   -0.2341 C   0  0  0  0  0  0  0  0  0  0  0  0
   -5.4387   25.0517    0.9128 C   0  0  0  0  0  0  0  0  0  0  0  0
   -5.8232   24.5944    2.1993 C   0  0  0  0  0  0  0  0  0  0  0  0
   -7.2841   22.9966    5.8721 C   0  0  0  0  0  0  0  0  0  0  0  0
   -6.5116   22.2344    6.7601 C   0  0  0  0  0  0  0  0  0  0  0  0
   -7.1054   21.7068    7.8981 C   0  0  0  0  0  0  0  0  0  0  0  0
   -8.4030   21.8793    8.2170 N   0  0  0  0  0  0  0  0  0  0  0  0
   -9.1364   22.6265    7.3685 C   0  0  0  0  0  0  0  0  0  0  0  0
   -8.6313   23.1940    6.2094 C   0  0  0  0  0  0  0  0  0  0  0  0
   -1.6368   26.1424    3.7771 C   0  0  0  0  0  0  0  0  0  0  0  0
   -0.8568   25.9764    5.0839 C   0  0  0  0  0  0  0  0  0  0  0  0
   -1.4715   29.3378    7.6993 C   0  0  0  0  0  0  0  0  0  0  0  0
   -0.3354   29.2910    6.8873 C   0  0  0  0  0  0  0  0  0  0  0  0
   -0.1355   28.1934    6.0495 C   0  0  0  0  0  0  0  0  0  0  0  0
   -1.0690   27.1461    6.0136 C   0  0  0  0  0  0  0  0  0  0  0  0
   -2.2135   27.2164    6.8211 C   0  0  0  0  0  0  0  0  0  0  0  0
   -2.4184   28.3113    7.6624 C   0  0  0  0  0  0  0  0  0  0  0  0
   -1.7290   30.7442    8.7528 S   0  0  0  0  0  0  0  0  0  0  0  0
   -0.4633   31.0955    9.3576 O   0  0  0  0  0  0  0  0  0  0  0  0
   -2.9112   30.4920    9.5464 O   0  0  0  0  0  0  0  0  0  0  0  0
   -3.3014   31.7938    6.8039 C   0  0  0  0  0  0  0  0  0  0  0  0
   -2.1365   31.9454    7.6597 N   0  0  0  0  0  0  0  0  0  0  0  0
   -1.8138   32.8773    7.9104 H   0  0  0  0  0  0  0  0  0  0  0  0
 32 33  1  0  0  0
 33 29  1  0  0  0
 29 30  2  0  0  0
 29 31  2  0  0  0
 29 23  1  0  0  0
 23 24  1  0  0  0
 24 25  2  0  0  0
 25 26  1  0  0  0
 26 22  1  0  0  0
 22 21  1  0  0  0
 21  1  1  0  0  0
  1  2  1  0  0  0
  2  3  2  0  0  0
  2  5  1  0  0  0
  5  6  2  0  0  0
  6  7  1  0  0  0
  7 15  1  0  0  0
 15 16  2  0  0  0
 16 17  1  0  0  0
 17 18  2  0  0  0
 18 19  1  0  0  0
 19 20  2  0  0  0
  7  8  2  0  0  0
  8  9  1  0  0  0
  9 10  2  0  0  0
 10 11  1  0  0  0
 11 12  2  0  0  0
 12 13  1  0  0  0
 13 14  2  0  0  0
 26 27  2  0  0  0
 27 28  1  0  0  0
 28 23  2  0  0  0
 14  5  1  0  0  0
 20 15  1  0  0  0
 14  9  1  0  0  0
 33 34  1  0  0  0
  1  4  1  0  0  0
M  END
> <minimizedAffinity>
-10.00945

$$$$
OCNT-2308710


 27 29  0  0  0  0  0  0  0  0999 V2000
   -4.5826   27.1539    5.3572 C   0  0  0  0  0  0  0  0  0  0  0  0
   -3.4132   26.2499    4.9439 C   0  0  0  0  0  0  0  0  0  0  0  0
   -3.2662   26.1694    3.4308 C   0  0  0  0  0  0  0  0  0  0  0  0
   -4.4831   25.6740    2.7941 N   0  0  0  0  0  0  0  0  0  0  0  0
   -4.3688   25.1531    1.5044 C   0  0  0  0  0  0  0  0  0  0  0  0
   -3.3228   25.1848    0.8595 O   0  0  0  0  0  0  0  0  0  0  0  0
   -5.7593   25.9915    3.4434 C   0  0  0  0  0  0  0  0  0  0  0  0
   -5.6620   27.2663    4.2707 C   0  0  0  0  0  0  0  0  0  0  0  0
   -5.5533   24.5267    0.8730 C   0  0  0  0  0  0  0  0  0  0  0  0
   -6.2702   25.2537   -0.0824 C   0  0  0  0  0  0  0  0  0  0  0  0
   -7.3785   24.6769   -0.7035 C   0  0  0  0  0  0  0  0  0  0  0  0
   -7.7583   23.3728   -0.3815 C   0  0  0  0  0  0  0  0  0  0  0  0
   -7.0270   22.6379    0.5533 C   0  0  0  0  0  0  0  0  0  0  0  0
   -5.9179   23.2102    1.1774 C   0  0  0  0  0  0  0  0  0  0  0  0
   -3.5866   28.7340    6.9864 C   0  0  0  0  0  0  0  0  0  0  0  0
   -3.3809   27.8711    7.8299 O   0  0  0  0  0  0  0  0  0  0  0  0
   -4.1106   28.4822    5.7353 N   0  0  0  0  0  0  0  0  0  0  0  0
   -4.2832   29.2593    5.1098 H   0  0  0  0  0  0  0  0  0  0  0  0
   -1.9225   30.6008    7.2899 C   0  0  0  0  0  0  0  0  0  0  0  0
   -1.6782   31.9465    7.6204 C   0  0  0  0  0  0  0  0  0  0  0  0
   -2.7286   32.8281    7.8850 C   0  0  0  0  0  0  0  0  0  0  0  0
   -4.0448   32.3782    7.8453 C   0  0  0  0  0  0  0  0  0  0  0  0
   -4.3118   31.0438    7.5436 C   0  0  0  0  0  0  0  0  0  0  0  0
   -3.2585   30.1563    7.2652 C   0  0  0  0  0  0  0  0  0  0  0  0
   -0.7635   29.6609    7.0293 C   0  0  0  0  0  0  0  0  0  0  0  0
    0.9468   29.3811    8.6508 C   0  0  0  0  0  0  0  0  0  0  0  0
   -0.3459   28.9753    8.2178 O   0  0  0  0  0  0  0  0  0  0  0  0
 26 27  1  0  0  0
 27 25  1  0  0  0
 25 19  1  0  0  0
 19 20  2  0  0  0
 20 21  1  0  0  0
 21 22  2  0  0  0
 22 23  1  0  0  0
 23 24  2  0  0  0
 24 15  1  0  0  0
 15 16  2  0  0  0
 15 17  1  0  0  0
 17  1  1  0  0  0
  1  2  1  0  0  0
  2  3  1  0  0  0
  3  4  1  0  0  0
  4  5  1  0  0  0
  5  6  2  0  0  0
  5  9  1  0  0  0
  9 10  2  0  0  0
 10 11  1  0  0  0
 11 12  2  0  0  0
 12 13  1  0  0  0
 13 14  2  0  0  0
  4  7  1  0  0  0
  7  8  1  0  0  0
 24 19  1  0  0  0
  8  1  1  0  0  0
 14  9  1  0  0  0
 17 18  1  0  0  0
M  END
> <minimizedAffinity>
-9.20598

$$$$
OCNT-2308724


 29 31  0  0  0  0  0  0  0  0999 V2000
   -3.7422   27.8848    6.1942 O   0  0  0  0  0  0  0  0  0  0  0  0
   -4.9417   27.9300    6.4279 C   0  0  0  0  0  0  0  0  0  0  0  0
   -5.4493   28.6308    7.5022 N   0  0  0  0  0  0  0  0  0  0  0  0
   -5.9558   27.3633    5.6906 N   0  0  0  0  0  0  0  0  0  0  0  0
   -6.2936   28.2440    7.9024 H   0  0  0  0  0  0  0  0  0  0  0  0
   -6.8882   27.6722    5.9229 H   0  0  0  0  0  0  0  0  0  0  0  0
   -5.8345   26.5331    4.5590 C   0  0  0  0  0  0  0  0  0  0  0  0
   -5.7797   27.0054    3.2475 C   0  0  0  0  0  0  0  0  0  0  0  0
   -5.6512   26.1175    2.1689 C   0  0  0  0  0  0  0  0  0  0  0  0
   -5.5724   24.7441    2.3909 C   0  0  0  0  0  0  0  0  0  0  0  0
   -5.6214   24.2707    3.7038 C   0  0  0  0  0  0  0  0  0  0  0  0
   -5.7495   25.1554    4.7793 C   0  0  0  0  0  0  0  0  0  0  0  0
   -5.4467   23.7711    1.4427 O   0  0  0  0  0  0  0  0  0  0  0  0
   -6.5890   23.4538    0.6660 C   0  0  0  0  0  0  0  0  0  0  0  0
   -6.8321   24.4082   -0.2575 F   0  0  0  0  0  0  0  0  0  0  0  0
   -7.6616   23.3811    1.4853 F   0  0  0  0  0  0  0  0  0  0  0  0
   -6.4472   22.2581    0.0552 F   0  0  0  0  0  0  0  0  0  0  0  0
   -4.5326   29.2063    8.4646 C   0  0  0  0  0  0  0  0  0  0  0  0
   -4.1571   30.5580    8.0058 C   0  0  0  0  0  0  0  0  0  0  0  0
   -5.0234   31.5309    7.7845 N   0  0  0  0  0  0  0  0  0  0  0  0
   -4.2921   32.6498    7.5272 N   0  0  0  0  0  0  0  0  0  0  0  0
   -2.9980   32.3902    7.5772 N   0  0  0  0  0  0  0  0  0  0  0  0
   -2.8746   31.0554    7.8078 N   0  0  0  0  0  0  0  0  0  0  0  0
   -1.5885   30.4469    7.7959 C   0  0  0  0  0  0  0  0  0  0  0  0
   -0.9873   29.9722    6.6246 C   0  0  0  0  0  0  0  0  0  0  0  0
    0.2806   29.3811    6.6707 C   0  0  0  0  0  0  0  0  0  0  0  0
    0.9637   29.2683    7.8786 C   0  0  0  0  0  0  0  0  0  0  0  0
    0.3867   29.7558    9.0466 C   0  0  0  0  0  0  0  0  0  0  0  0
   -0.8787   30.3470    9.0072 C   0  0  0  0  0  0  0  0  0  0  0  0
  1  2  2  0  0  0
  2  3  1  0  0  0
  3 18  1  0  0  0
 18 19  1  0  0  0
 19 20  2  0  0  0
 20 21  1  0  0  0
 21 22  2  0  0  0
 22 23  1  0  0  0
 23 24  1  0  0  0
 24 25  2  0  0  0
 25 26  1  0  0  0
 26 27  2  0  0  0
 27 28  1  0  0  0
 28 29  2  0  0  0
  2  4  1  0  0  0
  4  7  1  0  0  0
  7  8  1  0  0  0
  8  9  2  0  0  0
  9 10  1  0  0  0
 10 13  1  0  0  0
 13 14  1  0  0  0
 14 15  1  0  0  0
 14 16  1  0  0  0
 14 17  1  0  0  0
 10 11  2  0  0  0
 11 12  1  0  0  0
 23 19  1  0  0  0
 29 24  1  0  0  0
 12  7  2  0  0  0
  3  5  1  0  0  0
  4  6  1  0  0  0
M  END
> <minimizedAffinity>
-9.70682

$$$$
OCNT-2308752


 25 27  0  0  0  0  0  0  0  0999 V2000
   -1.6883   27.3326    6.4553 N   0  0  0  0  0  0  0  0  0  0  0  0
   -2.3320   27.7685    7.6830 C   0  0  0  0  0  0  0  0  0  0  0  0
   -1.2242   28.4948    8.4406 C   0  0  0  0  0  0  0  0  0  0  0  0
   -0.2941   29.0596    7.3499 C   0  0  0  0  0  0  0  0  0  0  0  0
   -0.4190   28.0182    6.2171 C   0  0  0  0  0  0  0  0  0  0  0  0
   -4.3593   26.6461    4.1895 C   0  0  0  0  0  0  0  0  0  0  0  0
   -3.8486   25.8056    3.2762 N   0  0  0  0  0  0  0  0  0  0  0  0
   -2.5581   25.4833    3.4421 C   0  0  0  0  0  0  0  0  0  0  0  0
   -1.7804   25.9563    4.4745 C   0  0  0  0  0  0  0  0  0  0  0  0
   -2.3790   26.8052    5.3850 C   0  0  0  0  0  0  0  0  0  0  0  0
   -3.6697   27.1569    5.2290 N   0  0  0  0  0  0  0  0  0  0  0  0
   -6.4564   27.2466    5.4140 C   0  0  0  0  0  0  0  0  0  0  0  0
   -5.8136   27.0321    4.0439 C   0  0  0  0  0  0  0  0  0  0  0  0
   -5.9634   28.2731    3.1650 C   0  0  0  0  0  0  0  0  0  0  0  0
    1.1547   29.0938    7.8791 C   0  0  0  0  0  0  0  0  0  0  0  0
    1.2029   29.3954    9.2679 O   0  0  0  0  0  0  0  0  0  0  0  0
    1.1381   30.3609    9.3707 H   0  0  0  0  0  0  0  0  0  0  0  0
   -0.6727   30.4973    6.8760 C   0  0  0  0  0  0  0  0  0  0  0  0
   -1.6994   31.2768    7.6680 C   0  0  0  0  0  0  0  0  0  0  0  0
   -1.4303   31.6576    8.9931 C   0  0  0  0  0  0  0  0  0  0  0  0
   -2.3779   32.3680    9.7317 C   0  0  0  0  0  0  0  0  0  0  0  0
   -3.5932   32.7021    9.1473 C   0  0  0  0  0  0  0  0  0  0  0  0
   -4.5040   33.3774    9.8604 F   0  0  0  0  0  0  0  0  0  0  0  0
   -3.8762   32.3460    7.8355 C   0  0  0  0  0  0  0  0  0  0  0  0
   -2.9277   31.6403    7.0938 C   0  0  0  0  0  0  0  0  0  0  0  0
 12 13  1  0  0  0
 13 14  1  0  0  0
 13  6  1  0  0  0
  6  7  2  0  0  0
  7  8  1  0  0  0
  8  9  2  0  0  0
  9 10  1  0  0  0
 10  1  1  0  0  0
  1  2  1  0  0  0
  2  3  1  0  0  0
  3  4  1  0  0  0
  4 15  1  0  0  0
 15 16  1  0  0  0
  4 18  1  0  0  0
 18 19  1  0  0  0
 19 20  1  0  0  0
 20 21  2  0  0  0
 21 22  1  0  0  0
 22 23  1  0  0  0
 22 24  2  0  0  0
 24 25  1  0  0  0
  4  5  1  0  0  0
 10 11  2  0  0  0
 11  6  1  0  0  0
  5  1  1  0  0  0
 25 19  2  0  0  0
 16 17  1  0  0  0
M  END
> <minimizedAffinity>
-9.24794

$$$$
OCNT-2308766


 31 33  0  0  0  0  0  0  0  0999 V2000
   -5.2843   27.3495    3.4624 C   0  0  0  0  0  0  0  0  0  0  0  0
   -5.1451   27.1357    4.9790 C   0  0  0  0  0  0  0  0  0  0  0  0
   -6.3031   27.7760    5.7392 C   0  0  0  0  0  0  0  0  0  0  0  0
   -6.3497   29.3079    5.5472 C   0  0  0  0  0  0  0  0  0  0  0  0
   -5.8287   29.7255    4.1575 C   0  0  0  0  0  0  0  0  0  0  0  0
   -6.0540   28.6368    3.1140 C   0  0  0  0  0  0  0  0  0  0  0  0
   -3.9773   25.3239    2.0052 O   0  0  0  0  0  0  0  0  0  0  0  0
   -5.1996   25.2765    2.1025 C   0  0  0  0  0  0  0  0  0  0  0  0
   -5.9286   26.1974    2.8407 N   0  0  0  0  0  0  0  0  0  0  0  0
   -6.9324   26.2279    2.7153 H   0  0  0  0  0  0  0  0  0  0  0  0
   -6.0733   24.2033    1.4447 C   0  0  0  0  0  0  0  0  0  0  0  0
   -5.8880   22.9395    2.0635 O   0  0  0  0  0  0  0  0  0  0  0  0
   -6.4445   22.7558    3.2974 C   0  0  0  0  0  0  0  0  0  0  0  0
   -5.5304   22.4217    4.3017 C   0  0  0  0  0  0  0  0  0  0  0  0
   -5.9591   22.2038    5.6128 C   0  0  0  0  0  0  0  0  0  0  0  0
   -7.3108   22.3223    5.9212 C   0  0  0  0  0  0  0  0  0  0  0  0
   -7.8496   22.0554    7.5327 Cl  0  0  0  0  0  0  0  0  0  0  0  0
   -8.2312   22.6566    4.9295 C   0  0  0  0  0  0  0  0  0  0  0  0
   -7.7986   22.8741    3.6163 C   0  0  0  0  0  0  0  0  0  0  0  0
   -5.5781   29.9289    6.6289 N   0  0  0  0  0  0  0  0  0  0  0  0
   -5.6796   29.4072    7.4983 H   0  0  0  0  0  0  0  0  0  0  0  0
   -4.1648   30.1588    6.3255 C   0  0  0  0  0  0  0  0  0  0  0  0
   -3.8123   31.6350    6.5423 C   0  0  0  0  0  0  0  0  0  0  0  0
   -2.3474   31.6447    6.9791 C   0  0  0  0  0  0  0  0  0  0  0  0
   -1.9203   30.2424    6.9529 N   0  0  0  0  0  0  0  0  0  0  0  0
   -3.1269   29.4487    7.2036 C   0  0  0  0  0  0  0  0  0  0  0  0
   -0.8278   29.9379    7.9025 C   0  0  0  0  0  0  0  0  0  0  0  0
    0.4096   29.1981    7.3551 C   0  0  0  0  0  0  0  0  0  0  0  0
    1.4657   29.2996    8.1943 F   0  0  0  0  0  0  0  0  0  0  0  0
    0.7887   29.6655    6.1459 F   0  0  0  0  0  0  0  0  0  0  0  0
    0.1389   27.8780    7.2123 F   0  0  0  0  0  0  0  0  0  0  0  0
  7  8  2  0  0  0
  8 11  1  0  0  0
 11 12  1  0  0  0
 12 13  1  0  0  0
 13 14  1  0  0  0
 14 15  2  0  0  0
 15 16  1  0  0  0
 16 17  1  0  0  0
 16 18  2  0  0  0
 18 19  1  0  0  0
  8  9  1  0  0  0
  9  1  1  0  0  0
  1  2  1  0  0  0
  2  3  1  0  0  0
  3  4  1  0  0  0
  4 20  1  0  0  0
 20 22  1  0  0  0
 22 23  1  0  0  0
 23 24  1  0  0  0
 24 25  1  0  0  0
 25 27  1  0  0  0
 27 28  1  0  0  0
 28 29  1  0  0  0
 28 30  1  0  0  0
 28 31  1  0  0  0
 25 26  1  0  0  0
  4  5  1  0  0  0
  5  6  1  0  0  0
 19 13  2  0  0  0
  6  1  1  0  0  0
 26 22  1  0  0  0
  9 10  1  0  0  0
 20 21  1  0  0  0
M  END
> <minimizedAffinity>
-9.41605

$$$$
OCNT-2308774


 28 30  0  0  0  0  0  0  0  0999 V2000
   -4.9374   25.5186    3.6791 N   0  0  0  0  0  0  0  0  0  0  0  0
   -5.8605   25.9641    4.5988 C   0  0  0  0  0  0  0  0  0  0  0  0
   -6.7266   25.2602    5.1078 O   0  0  0  0  0  0  0  0  0  0  0  0
   -4.3489   26.2508    3.2952 H   0  0  0  0  0  0  0  0  0  0  0  0
   -5.7010   27.3918    4.9179 C   0  0  0  0  0  0  0  0  0  0  0  0
   -5.7562   28.3479    3.9677 N   0  0  0  0  0  0  0  0  0  0  0  0
   -5.5713   29.4883    4.6570 N   0  0  0  0  0  0  0  0  0  0  0  0
   -5.4030   29.3277    6.0088 C   0  0  0  0  0  0  0  0  0  0  0  0
   -5.4853   27.9615    6.1990 C   0  0  0  0  0  0  0  0  0  0  0  0
   -5.5669   30.3752    4.1610 H   0  0  0  0  0  0  0  0  0  0  0  0
   -5.1915   30.4516    6.9322 C   0  0  0  0  0  0  0  0  0  0  0  0
   -6.0686   30.6382    8.0130 C   0  0  0  0  0  0  0  0  0  0  0  0
   -5.8973   31.6965    8.9110 C   0  0  0  0  0  0  0  0  0  0  0  0
   -4.8436   32.5901    8.7450 C   0  0  0  0  0  0  0  0  0  0  0  0
   -3.9583   32.4291    7.6815 C   0  0  0  0  0  0  0  0  0  0  0  0
   -4.1325   31.3696    6.7850 C   0  0  0  0  0  0  0  0  0  0  0  0
   -3.2445   31.2339    5.7442 O   0  0  0  0  0  0  0  0  0  0  0  0
   -2.5887   31.9501    5.8089 H   0  0  0  0  0  0  0  0  0  0  0  0
   -5.0368   24.2305    3.0328 C   0  0  0  0  0  0  0  0  0  0  0  0
   -3.6612   23.5960    2.8267 C   0  0  0  0  0  0  0  0  0  0  0  0
   -8.2522   22.3233   -0.5591 C   0  0  0  0  0  0  0  0  0  0  0  0
   -7.3689   23.3980    0.0224 C   0  0  0  0  0  0  0  0  0  0  0  0
   -7.2244   24.5906   -0.7021 C   0  0  0  0  0  0  0  0  0  0  0  0
   -6.4104   25.6103   -0.2313 C   0  0  0  0  0  0  0  0  0  0  0  0
   -5.7280   25.4476    0.9692 C   0  0  0  0  0  0  0  0  0  0  0  0
   -5.8485   24.2690    1.7375 C   0  0  0  0  0  0  0  0  0  0  0  0
   -6.7047   23.2359    1.2690 C   0  0  0  0  0  0  0  0  0  0  0  0
   -6.8703   21.9353    2.0167 C   0  0  0  0  0  0  0  0  0  0  0  0
 21 22  1  0  0  0
 22 23  1  0  0  0
 23 24  2  0  0  0
 24 25  1  0  0  0
 25 26  2  0  0  0
 26 19  1  0  0  0
 19 20  1  0  0  0
 19  1  1  0  0  0
  1  2  1  0  0  0
  2  3  2  0  0  0
  2  5  1  0  0  0
  5  6  2  0  0  0
  6  7  1  0  0  0
  7  8  1  0  0  0
  8 11  1  0  0  0
 11 12  2  0  0  0
 12 13  1  0  0  0
 13 14  2  0  0  0
 14 15  1  0  0  0
 15 16  2  0  0  0
 16 17  1  0  0  0
  8  9  2  0  0  0
 26 27  1  0  0  0
 27 28  1  0  0  0
 27 22  2  0  0  0
  9  5  1  0  0  0
 16 11  1  0  0  0
  1  4  1  0  0  0
  7 10  1  0  0  0
 17 18  1  0  0  0
M  END
> <minimizedAffinity>
-9.74061

$$$$
OCNT-2308775


 28 30  0  0  0  0  0  0  0  0999 V2000
    0.0964   29.0975    7.1469 C   0  0  0  0  0  0  0  0  0  0  0  0
    1.2964   29.1901    8.0936 C   0  0  0  0  0  0  0  0  0  0  0  0
   -3.1408   31.7765    8.2019 C   0  0  0  0  0  0  0  0  0  0  0  0
   -2.5808   30.9316    9.1606 C   0  0  0  0  0  0  0  0  0  0  0  0
   -1.5374   30.0790    8.7962 C   0  0  0  0  0  0  0  0  0  0  0  0
   -1.0538   30.0441    7.4732 C   0  0  0  0  0  0  0  0  0  0  0  0
   -1.6338   30.9054    6.5268 C   0  0  0  0  0  0  0  0  0  0  0  0
   -2.6789   31.7623    6.8844 C   0  0  0  0  0  0  0  0  0  0  0  0
   -4.4788   32.8492    8.6631 S   0  0  0  0  0  0  0  0  0  0  0  0
   -4.0962   33.5621    9.8616 O   0  0  0  0  0  0  0  0  0  0  0  0
   -4.9235   33.5379    7.4720 O   0  0  0  0  0  0  0  0  0  0  0  0
   -6.4316   31.0713    8.0279 C   0  0  0  0  0  0  0  0  0  0  0  0
   -5.6885   31.7647    9.0662 N   0  0  0  0  0  0  0  0  0  0  0  0
   -6.1129   31.9147    9.9788 H   0  0  0  0  0  0  0  0  0  0  0  0
   -0.4316   27.7375    7.1579 N   0  0  0  0  0  0  0  0  0  0  0  0
   -0.1659   27.2006    7.9781 H   0  0  0  0  0  0  0  0  0  0  0  0
   -0.9782   27.1283    6.0821 C   0  0  0  0  0  0  0  0  0  0  0  0
   -2.3260   27.1044    5.7869 C   0  0  0  0  0  0  0  0  0  0  0  0
   -3.4615   27.6150    6.5971 C   0  0  0  0  0  0  0  0  0  0  0  0
   -2.4380   26.4369    4.5636 N   0  0  0  0  0  0  0  0  0  0  0  0
   -1.2356   25.9115    4.1855 N   0  0  0  0  0  0  0  0  0  0  0  0
   -0.3615   26.3845    5.0683 C   0  0  0  0  0  0  0  0  0  0  0  0
   -3.5652   26.2408    3.7027 C   0  0  0  0  0  0  0  0  0  0  0  0
   -3.6081   25.0871    2.8978 C   0  0  0  0  0  0  0  0  0  0  0  0
   -4.6850   24.8527    2.0392 C   0  0  0  0  0  0  0  0  0  0  0  0
   -5.7261   25.7726    1.9619 C   0  0  0  0  0  0  0  0  0  0  0  0
   -5.6852   26.9296    2.7359 C   0  0  0  0  0  0  0  0  0  0  0  0
   -4.6085   27.1681    3.5986 C   0  0  0  0  0  0  0  0  0  0  0  0
 12 13  1  0  0  0
 13  9  1  0  0  0
  9 10  2  0  0  0
  9 11  2  0  0  0
  9  3  1  0  0  0
  3  4  1  0  0  0
  4  5  2  0  0  0
  5  6  1  0  0  0
  6  1  1  0  0  0
  1  2  1  0  0  0
  1 15  1  0  0  0
 15 17  1  0  0  0
 17 18  2  0  0  0
 18 19  1  0  0  0
 18 20  1  0  0  0
 20 23  1  0  0  0
 23 24  2  0  0  0
 24 25  1  0  0  0
 25 26  2  0  0  0
 26 27  1  0  0  0
 27 28  2  0  0  0
 20 21  1  0  0  0
 21 22  2  0  0  0
  6  7  2  0  0  0
  7  8  1  0  0  0
  8  3  2  0  0  0
 22 17  1  0  0  0
 28 23  1  0  0  0
 13 14  1  0  0  0
 15 16  1  0  0  0
M  END
> <minimizedAffinity>
-9.13856

$$$$
OCNT-2308782


 24 26  0  0  0  0  0  0  0  0999 V2000
   -3.7975   25.4135    2.5773 N   0  0  0  0  0  0  0  0  0  0  0  0
   -3.2678   25.4098    1.7062 H   0  0  0  0  0  0  0  0  0  0  0  0
   -3.1289   26.2943    3.5531 C   0  0  0  0  0  0  0  0  0  0  0  0
   -3.9659   26.3385    4.8335 C   0  0  0  0  0  0  0  0  0  0  0  0
   -3.3828   27.3374    5.8412 C   0  0  0  0  0  0  0  0  0  0  0  0
   -1.9244   27.4760    5.6817 N   0  0  0  0  0  0  0  0  0  0  0  0
   -1.2352   26.2517    5.2822 C   0  0  0  0  0  0  0  0  0  0  0  0
   -1.6919   25.8436    3.8768 C   0  0  0  0  0  0  0  0  0  0  0  0
   -1.3151   28.2235    6.7052 C   0  0  0  0  0  0  0  0  0  0  0  0
    0.0578   28.4589    6.6859 C   0  0  0  0  0  0  0  0  0  0  0  0
    0.6561   29.2201    7.6875 C   0  0  0  0  0  0  0  0  0  0  0  0
   -0.1465   29.7344    8.6803 C   0  0  0  0  0  0  0  0  0  0  0  0
   -1.4718   29.5270    8.6973 N   0  0  0  0  0  0  0  0  0  0  0  0
   -2.0504   28.7783    7.6963 N   0  0  0  0  0  0  0  0  0  0  0  0
   -5.1825   25.8110    2.2697 C   0  0  0  0  0  0  0  0  0  0  0  0
   -6.1090   23.4738    1.7520 C   0  0  0  0  0  0  0  0  0  0  0  0
   -6.7319   22.6159    0.8328 C   0  0  0  0  0  0  0  0  0  0  0  0
   -7.2464   23.0930   -0.3756 C   0  0  0  0  0  0  0  0  0  0  0  0
   -7.1205   24.4368   -0.7034 C   0  0  0  0  0  0  0  0  0  0  0  0
   -6.4640   25.3003    0.1699 C   0  0  0  0  0  0  0  0  0  0  0  0
   -5.9427   24.8336    1.3925 C   0  0  0  0  0  0  0  0  0  0  0  0
   -5.1264   21.6139    3.0238 C   0  0  0  0  0  0  0  0  0  0  0  0
   -5.5374   23.0043    2.9515 N   0  0  0  0  0  0  0  0  0  0  0  0
   -6.1787   23.2469    3.7182 H   0  0  0  0  0  0  0  0  0  0  0  0
 22 23  1  0  0  0
 23 16  1  0  0  0
 16 17  2  0  0  0
 17 18  1  0  0  0
 18 19  2  0  0  0
 19 20  1  0  0  0
 20 21  2  0  0  0
 21 15  1  0  0  0
 15  1  1  0  0  0
  1  3  1  0  0  0
  3  4  1  0  0  0
  4  5  1  0  0  0
  5  6  1  0  0  0
  6  9  1  0  0  0
  9 10  2  0  0  0
 10 11  1  0  0  0
 11 12  2  0  0  0
 12 13  1  0  0  0
 13 14  2  0  0  0
  6  7  1  0  0  0
  7  8  1  0  0  0
 21 16  1  0  0  0
  8  3  1  0  0  0
 14  9  1  0  0  0
 23 24  1  0  0  0
  1  2  1  0  0  0
M  END
> <minimizedAffinity>
-8.78921

$$$$
OCNT-2308794


 22 24  0  0  0  0  0  0  0  0999 V2000
   -2.2540   25.8111    5.3410 O   0  0  0  0  0  0  0  0  0  0  0  0
   -2.9152   26.8420    5.2620 C   0  0  0  0  0  0  0  0  0  0  0  0
   -3.7103   27.1310    4.1764 N   0  0  0  0  0  0  0  0  0  0  0  0
   -4.2240   28.0057    4.2234 H   0  0  0  0  0  0  0  0  0  0  0  0
   -2.9563   27.8808    6.2775 C   0  0  0  0  0  0  0  0  0  0  0  0
   -4.0989   28.4261    6.6862 N   0  0  0  0  0  0  0  0  0  0  0  0
   -3.7554   29.3312    7.6561 C   0  0  0  0  0  0  0  0  0  0  0  0
   -2.3950   29.3600    7.8369 C   0  0  0  0  0  0  0  0  0  0  0  0
   -1.4900   30.0741    8.6700 C   0  0  0  0  0  0  0  0  0  0  0  0
   -0.1699   29.8346    8.5654 C   0  0  0  0  0  0  0  0  0  0  0  0
    0.3553   28.8571    7.6258 C   0  0  0  0  0  0  0  0  0  0  0  0
   -0.5016   28.1824    6.8394 C   0  0  0  0  0  0  0  0  0  0  0  0
   -1.8722   28.4278    6.9444 N   0  0  0  0  0  0  0  0  0  0  0  0
   -3.9441   26.2234    3.0765 C   0  0  0  0  0  0  0  0  0  0  0  0
   -5.4141   26.2003    2.6075 C   0  0  0  0  0  0  0  0  0  0  0  0
   -5.8772   25.0562    1.7976 N   0  0  0  0  0  0  0  0  0  0  0  0
   -5.3952   23.7683    2.2891 C   0  0  0  0  0  0  0  0  0  0  0  0
   -5.7864   22.5295    1.4749 C   0  0  0  0  0  0  0  0  0  0  0  0
   -7.2081   22.5498    0.9195 C   0  0  0  0  0  0  0  0  0  0  0  0
   -7.2962   23.2966   -0.4096 C   0  0  0  0  0  0  0  0  0  0  0  0
   -7.0774   24.8066   -0.3285 C   0  0  0  0  0  0  0  0  0  0  0  0
   -5.7821   25.2560    0.3544 C   0  0  0  0  0  0  0  0  0  0  0  0
  1  2  2  0  0  0
  2  3  1  0  0  0
  3 14  1  0  0  0
 14 15  1  0  0  0
 15 16  1  0  0  0
 16 17  1  0  0  0
 17 18  1  0  0  0
 18 19  1  0  0  0
 19 20  1  0  0  0
 20 21  1  0  0  0
 21 22  1  0  0  0
  2  5  1  0  0  0
  5  6  2  0  0  0
  6  7  1  0  0  0
  7  8  2  0  0  0
  8  9  1  0  0  0
  9 10  2  0  0  0
 10 11  1  0  0  0
 11 12  2  0  0  0
 12 13  1  0  0  0
 22 16  1  0  0  0
 13  5  1  0  0  0
 13  8  1  0  0  0
  3  4  1  0  0  0
M  END
> <minimizedAffinity>
-8.66091

$$$$
OCNT-2308798


 26 29  0  0  0  0  0  0  0  0999 V2000
   -3.7606   25.7804    3.6707 N   0  0  0  0  0  0  0  0  0  0  0  0
   -2.4106   25.8103    3.4934 N   0  0  0  0  0  0  0  0  0  0  0  0
   -1.8528   26.4276    4.5178 N   0  0  0  0  0  0  0  0  0  0  0  0
   -2.8509   26.8829    5.3367 C   0  0  0  0  0  0  0  0  0  0  0  0
   -4.0820   26.5441    4.7904 C   0  0  0  0  0  0  0  0  0  0  0  0
   -5.4439   26.9298    5.2303 C   0  0  0  0  0  0  0  0  0  0  0  0
   -6.9678   22.6266    0.0874 C   0  0  0  0  0  0  0  0  0  0  0  0
   -6.1569   23.4581    1.0365 C   0  0  0  0  0  0  0  0  0  0  0  0
   -6.1773   24.8536    0.9547 C   0  0  0  0  0  0  0  0  0  0  0  0
   -5.3985   25.6352    1.8179 C   0  0  0  0  0  0  0  0  0  0  0  0
   -4.5682   25.0296    2.7664 C   0  0  0  0  0  0  0  0  0  0  0  0
   -4.5548   23.6264    2.8505 C   0  0  0  0  0  0  0  0  0  0  0  0
   -5.3327   22.8500    1.9860 C   0  0  0  0  0  0  0  0  0  0  0  0
   -2.5575   27.6295    6.5623 C   0  0  0  0  0  0  0  0  0  0  0  0
   -2.0321   27.1003    7.5344 O   0  0  0  0  0  0  0  0  0  0  0  0
   -2.9355   28.9536    6.4579 N   0  0  0  0  0  0  0  0  0  0  0  0
   -3.3490   29.2053    5.5643 H   0  0  0  0  0  0  0  0  0  0  0  0
   -2.8080   29.9892    7.4126 C   0  0  0  0  0  0  0  0  0  0  0  0
   -1.8297   30.9822    7.3267 C   0  0  0  0  0  0  0  0  0  0  0  0
   -1.7526   31.9712    8.3022 C   0  0  0  0  0  0  0  0  0  0  0  0
   -2.6591   31.9365    9.3411 C   0  0  0  0  0  0  0  0  0  0  0  0
   -3.6180   30.9968    9.4633 N   0  0  0  0  0  0  0  0  0  0  0  0
   -3.7041   30.0292    8.5069 C   0  0  0  0  0  0  0  0  0  0  0  0
   -4.7925   28.9844    8.6961 C   0  0  0  0  0  0  0  0  0  0  0  0
   -6.1912   29.2390    8.1773 C   0  0  0  0  0  0  0  0  0  0  0  0
   -5.9350   29.2447    9.6531 C   0  0  0  0  0  0  0  0  0  0  0  0
  7  8  1  0  0  0
  8  9  1  0  0  0
  9 10  2  0  0  0
 10 11  1  0  0  0
 11  1  1  0  0  0
  1  2  1  0  0  0
  2  3  2  0  0  0
  3  4  1  0  0  0
  4 14  1  0  0  0
 14 15  2  0  0  0
 14 16  1  0  0  0
 16 18  1  0  0  0
 18 19  1  0  0  0
 19 20  2  0  0  0
 20 21  1  0  0  0
 21 22  2  0  0  0
 22 23  1  0  0  0
 23 24  1  0  0  0
 24 25  1  0  0  0
 25 26  1  0  0  0
  4  5  2  0  0  0
  5  6  1  0  0  0
 11 12  2  0  0  0
 12 13  1  0  0  0
 13  8  2  0  0  0
  5  1  1  0  0  0
 23 18  2  0  0  0
 26 24  1  0  0  0
 16 17  1  0  0  0
M  END
> <minimizedAffinity>
-9.48072

$$$$
OCNT-2308800


 25 26  0  0  0  0  0  0  0  0999 V2000
   -5.4101   24.9217    3.7385 C   0  0  0  0  0  0  0  0  0  0  0  0
   -4.9680   25.9434    2.6733 C   0  0  0  0  0  0  0  0  0  0  0  0
   -5.7264   27.2606    2.7788 C   0  0  0  0  0  0  0  0  0  0  0  0
   -5.6294   27.8434    4.1167 N   0  0  0  0  0  0  0  0  0  0  0  0
   -5.9459   29.2028    4.2419 C   0  0  0  0  0  0  0  0  0  0  0  0
   -6.4098   29.8383    3.2978 O   0  0  0  0  0  0  0  0  0  0  0  0
   -5.6496   26.9157    5.2516 C   0  0  0  0  0  0  0  0  0  0  0  0
   -6.2321   25.5567    4.8698 C   0  0  0  0  0  0  0  0  0  0  0  0
   -5.6870   29.8356    5.5198 C   0  0  0  0  0  0  0  0  0  0  0  0
   -6.5220   29.8994    6.6255 C   0  0  0  0  0  0  0  0  0  0  0  0
   -5.8631   30.6428    7.6286 C   0  0  0  0  0  0  0  0  0  0  0  0
   -6.4803   30.9676    9.1736 Cl  0  0  0  0  0  0  0  0  0  0  0  0
   -4.6571   31.0526    7.1143 C   0  0  0  0  0  0  0  0  0  0  0  0
   -4.5724   30.5864    5.8289 N   0  0  0  0  0  0  0  0  0  0  0  0
   -3.8179   30.7825    5.1840 H   0  0  0  0  0  0  0  0  0  0  0  0
   -6.0239   23.7059    3.1764 N   0  0  0  0  0  0  0  0  0  0  0  0
   -7.0367   23.8382    3.1344 H   0  0  0  0  0  0  0  0  0  0  0  0
   -5.5308   23.3128    1.8399 C   0  0  0  0  0  0  0  0  0  0  0  0
   -7.6766   21.9325    2.0627 C   0  0  0  0  0  0  0  0  0  0  0  0
   -6.5533   22.3882    1.1258 C   0  0  0  0  0  0  0  0  0  0  0  0
   -5.8495   21.2018    0.7040 O   0  0  0  0  0  0  0  0  0  0  0  0
   -5.1538   21.0623    1.3791 H   0  0  0  0  0  0  0  0  0  0  0  0
   -7.1565   23.1411   -0.0763 C   0  0  0  0  0  0  0  0  0  0  0  0
   -7.4637   24.4215    0.2506 F   0  0  0  0  0  0  0  0  0  0  0  0
   -8.3081   22.5518   -0.4878 F   0  0  0  0  0  0  0  0  0  0  0  0
 19 20  1  0  0  0
 20 21  1  0  0  0
 20 18  1  0  0  0
 18 16  1  0  0  0
 16  1  1  0  0  0
  1  2  1  0  0  0
  2  3  1  0  0  0
  3  4  1  0  0  0
  4  5  1  0  0  0
  5  6  2  0  0  0
  5  9  1  0  0  0
  9 10  2  0  0  0
 10 11  1  0  0  0
 11 12  1  0  0  0
 11 13  2  0  0  0
 13 14  1  0  0  0
  4  7  1  0  0  0
  7  8  1  0  0  0
 20 23  1  0  0  0
 23 24  1  0  0  0
 23 25  1  0  0  0
  8  1  1  0  0  0
 14  9  1  0  0  0
 21 22  1  0  0  0
 16 17  1  0  0  0
 14 15  1  0  0  0
M  END
> <minimizedAffinity>
-8.05106

$$$$
OCNT-2308810


 27 30  0  0  0  0  0  0  0  0999 V2000
   -3.8616   26.4053    2.9134 O   0  0  0  0  0  0  0  0  0  0  0  0
   -5.0380   26.2600    2.5971 C   0  0  0  0  0  0  0  0  0  0  0  0
   -6.0378   27.1062    3.0252 N   0  0  0  0  0  0  0  0  0  0  0  0
   -6.9943   26.8035    2.9098 H   0  0  0  0  0  0  0  0  0  0  0  0
   -5.4968   25.1338    1.7907 C   0  0  0  0  0  0  0  0  0  0  0  0
   -6.0807   25.2831    0.5395 C   0  0  0  0  0  0  0  0  0  0  0  0
   -6.3713   24.0435    0.0407 N   0  0  0  0  0  0  0  0  0  0  0  0
   -6.0185   23.0875    0.9490 C   0  0  0  0  0  0  0  0  0  0  0  0
   -6.1911   21.7675    0.7550 N   0  0  0  0  0  0  0  0  0  0  0  0
   -5.8007   21.0221    1.8115 C   0  0  0  0  0  0  0  0  0  0  0  0
   -5.2746   21.5161    2.9965 C   0  0  0  0  0  0  0  0  0  0  0  0
   -5.1121   22.8951    3.1429 C   0  0  0  0  0  0  0  0  0  0  0  0
   -5.4865   23.7243    2.0673 C   0  0  0  0  0  0  0  0  0  0  0  0
   -6.7973   23.8367   -0.8510 H   0  0  0  0  0  0  0  0  0  0  0  0
   -5.7665   28.2161    3.9179 C   0  0  0  0  0  0  0  0  0  0  0  0
   -5.7349   27.7892    5.3918 C   0  0  0  0  0  0  0  0  0  0  0  0
   -6.8962   28.3585    6.2072 C   0  0  0  0  0  0  0  0  0  0  0  0
   -6.4447   29.7740    6.5649 C   0  0  0  0  0  0  0  0  0  0  0  0
   -4.9846   29.6992    6.5592 N   0  0  0  0  0  0  0  0  0  0  0  0
   -4.5185   28.3884    6.1065 C   0  0  0  0  0  0  0  0  0  0  0  0
   -4.1729   30.6465    7.1432 C   0  0  0  0  0  0  0  0  0  0  0  0
   -2.7752   30.5047    7.1838 C   0  0  0  0  0  0  0  0  0  0  0  0
   -1.9429   31.4676    7.7696 C   0  0  0  0  0  0  0  0  0  0  0  0
   -2.4923   32.6130    8.3312 C   0  0  0  0  0  0  0  0  0  0  0  0
   -3.8701   32.7841    8.2981 C   0  0  0  0  0  0  0  0  0  0  0  0
   -4.6368   34.3421    9.0495 Br  0  0  0  0  0  0  0  0  0  0  0  0
   -4.6969   31.8188    7.7124 C   0  0  0  0  0  0  0  0  0  0  0  0
  1  2  2  0  0  0
  2  3  1  0  0  0
  3 15  1  0  0  0
 15 16  1  0  0  0
 16 17  1  0  0  0
 17 18  1  0  0  0
 18 19  1  0  0  0
 19 21  1  0  0  0
 21 22  2  0  0  0
 22 23  1  0  0  0
 23 24  2  0  0  0
 24 25  1  0  0  0
 25 26  1  0  0  0
 25 27  2  0  0  0
 19 20  1  0  0  0
  2  5  1  0  0  0
  5  6  2  0  0  0
  6  7  1  0  0  0
  7  8  1  0  0  0
  8  9  1  0  0  0
  9 10  2  0  0  0
 10 11  1  0  0  0
 11 12  2  0  0  0
 12 13  1  0  0  0
 20 16  1  0  0  0
 13  5  1  0  0  0
 27 21  1  0  0  0
 13  8  2  0  0  0
  3  4  1  0  0  0
  7 14  1  0  0  0
M  END
> <minimizedAffinity>
-9.76332

$$$$
OCNT-2308818


 29 33  0  0  0  0  0  0  0  0999 V2000
   -2.8819   29.1022    7.0861 C   0  0  0  0  0  0  0  0  0  0  0  0
   -3.1223   28.1482    6.1696 N   0  0  0  0  0  0  0  0  0  0  0  0
   -4.3649   28.0557    5.6662 C   0  0  0  0  0  0  0  0  0  0  0  0
   -5.4032   28.9069    6.0851 C   0  0  0  0  0  0  0  0  0  0  0  0
   -6.7463   28.8393    5.6339 C   0  0  0  0  0  0  0  0  0  0  0  0
   -7.7073   29.7296    6.1064 C   0  0  0  0  0  0  0  0  0  0  0  0
   -7.3410   30.6916    7.0368 C   0  0  0  0  0  0  0  0  0  0  0  0
   -6.0203   30.7484    7.4918 C   0  0  0  0  0  0  0  0  0  0  0  0
   -5.0454   29.8681    7.0365 C   0  0  0  0  0  0  0  0  0  0  0  0
   -3.8088   29.9753    7.5305 N   0  0  0  0  0  0  0  0  0  0  0  0
    1.0743   29.3517    8.6343 C   0  0  0  0  0  0  0  0  0  0  0  0
    0.1015   30.1890    9.1606 C   0  0  0  0  0  0  0  0  0  0  0  0
   -1.1994   30.1199    8.6640 C   0  0  0  0  0  0  0  0  0  0  0  0
   -1.5080   29.2112    7.6460 C   0  0  0  0  0  0  0  0  0  0  0  0
   -0.5469   28.3891    7.1307 N   0  0  0  0  0  0  0  0  0  0  0  0
    0.7048   28.4769    7.6296 C   0  0  0  0  0  0  0  0  0  0  0  0
   -4.6129   27.0789    4.6614 N   0  0  0  0  0  0  0  0  0  0  0  0
   -3.3268   26.6383    4.0804 C   0  0  0  0  0  0  0  0  0  0  0  0
   -3.4554   25.2692    3.4108 C   0  0  0  0  0  0  0  0  0  0  0  0
   -4.8626   25.0638    2.8516 C   0  0  0  0  0  0  0  0  0  0  0  0
   -5.8972   25.1187    3.9884 C   0  0  0  0  0  0  0  0  0  0  0  0
   -5.4331   25.9724    5.1690 C   0  0  0  0  0  0  0  0  0  0  0  0
   -4.9818   23.7739    2.2351 O   0  0  0  0  0  0  0  0  0  0  0  0
   -5.9362   23.6782    1.2455 C   0  0  0  0  0  0  0  0  0  0  0  0
   -6.6691   22.4992    1.1820 C   0  0  0  0  0  0  0  0  0  0  0  0
   -7.6285   22.2800    0.2487 N   0  0  0  0  0  0  0  0  0  0  0  0
   -7.8212   23.2987   -0.6184 C   0  0  0  0  0  0  0  0  0  0  0  0
   -7.0909   24.4756   -0.5561 C   0  0  0  0  0  0  0  0  0  0  0  0
   -6.1309   24.6924    0.3730 N   0  0  0  0  0  0  0  0  0  0  0  0
 11 12  2  0  0  0
 12 13  1  0  0  0
 13 14  2  0  0  0
 14  1  1  0  0  0
  1  2  2  0  0  0
  2  3  1  0  0  0
  3 17  1  0  0  0
 17 18  1  0  0  0
 18 19  1  0  0  0
 19 20  1  0  0  0
 20 23  1  0  0  0
 23 24  1  0  0  0
 24 25  2  0  0  0
 25 26  1  0  0  0
 26 27  2  0  0  0
 27 28  1  0  0  0
 28 29  2  0  0  0
 20 21  1  0  0  0
 21 22  1  0  0  0
  3  4  2  0  0  0
  4  5  1  0  0  0
  5  6  2  0  0  0
  6  7  1  0  0  0
  7  8  2  0  0  0
  8  9  1  0  0  0
  9 10  2  0  0  0
 14 15  1  0  0  0
 15 16  2  0  0  0
 16 11  1  0  0  0
 10  1  1  0  0  0
 22 17  1  0  0  0
  9  4  1  0  0  0
 29 24  1  0  0  0
M  END
> <minimizedAffinity>
-9.51879

$$$$
OCNT-2308832


 23 24  0  0  0  0  0  0  0  0999 V2000
   -5.8011   25.5214    2.8943 C   0  0  0  0  0  0  0  0  0  0  0  0
   -5.8984   25.5851    4.2106 N   0  0  0  0  0  0  0  0  0  0  0  0
   -5.9822   26.9304    4.4680 C   0  0  0  0  0  0  0  0  0  0  0  0
   -6.0991   27.6375    5.6722 C   0  0  0  0  0  0  0  0  0  0  0  0
   -6.1381   29.0469    5.6497 C   0  0  0  0  0  0  0  0  0  0  0  0
   -6.1379   29.7048    4.4059 C   0  0  0  0  0  0  0  0  0  0  0  0
   -6.0166   29.0183    3.1860 C   0  0  0  0  0  0  0  0  0  0  0  0
   -5.9361   27.6383    3.2812 C   0  0  0  0  0  0  0  0  0  0  0  0
   -5.8083   26.7421    2.2625 O   0  0  0  0  0  0  0  0  0  0  0  0
   -5.7358   24.7305    0.5459 C   0  0  0  0  0  0  0  0  0  0  0  0
   -5.6480   24.3047    2.0200 C   0  0  0  0  0  0  0  0  0  0  0  0
   -6.7501   23.2742    2.3232 C   0  0  0  0  0  0  0  0  0  0  0  0
   -4.2804   23.6453    2.2717 C   0  0  0  0  0  0  0  0  0  0  0  0
   -6.3057   29.7151    6.8677 N   0  0  0  0  0  0  0  0  0  0  0  0
   -6.9081   30.5353    6.7775 H   0  0  0  0  0  0  0  0  0  0  0  0
   -6.5944   28.9581    8.0919 C   0  0  0  0  0  0  0  0  0  0  0  0
   -5.5750   29.3194    9.1993 C   0  0  0  0  0  0  0  0  0  0  0  0
   -6.1296   29.0289   10.5958 C   0  0  0  0  0  0  0  0  0  0  0  0
   -4.3858   28.5085    9.0330 O   0  0  0  0  0  0  0  0  0  0  0  0
   -4.0424   28.6894    8.1366 H   0  0  0  0  0  0  0  0  0  0  0  0
   -5.2155   30.8062    9.0834 C   0  0  0  0  0  0  0  0  0  0  0  0
   -4.0152   31.0592    9.6595 F   0  0  0  0  0  0  0  0  0  0  0  0
   -6.1348   31.5449    9.7644 F   0  0  0  0  0  0  0  0  0  0  0  0
 10 11  1  0  0  0
 11 12  1  0  0  0
 11 13  1  0  0  0
 11  1  1  0  0  0
  1  2  2  0  0  0
  2  3  1  0  0  0
  3  4  2  0  0  0
  4  5  1  0  0  0
  5 14  1  0  0  0
 14 16  1  0  0  0
 16 17  1  0  0  0
 17 18  1  0  0  0
 17 19  1  0  0  0
 17 21  1  0  0  0
 21 22  1  0  0  0
 21 23  1  0  0  0
  5  6  2  0  0  0
  6  7  1  0  0  0
  7  8  2  0  0  0
  8  9  1  0  0  0
  9  1  1  0  0  0
  8  3  1  0  0  0
 14 15  1  0  0  0
 19 20  1  0  0  0
M  END
> <minimizedAffinity>
-8.12153

$$$$
OCNT-2308837


 26 28  0  0  0  0  0  0  0  0999 V2000
   -6.1454   29.5976    3.5232 C   0  0  0  0  0  0  0  0  0  0  0  0
   -5.8770   28.6140    4.6684 C   0  0  0  0  0  0  0  0  0  0  0  0
   -5.9214   27.1817    4.1449 C   0  0  0  0  0  0  0  0  0  0  0  0
   -5.6483   26.8925    2.8004 C   0  0  0  0  0  0  0  0  0  0  0  0
   -5.6928   25.5806    2.3347 C   0  0  0  0  0  0  0  0  0  0  0  0
   -6.0101   24.5347    3.2039 C   0  0  0  0  0  0  0  0  0  0  0  0
   -6.2855   24.7943    4.5539 C   0  0  0  0  0  0  0  0  0  0  0  0
   -6.2380   26.1213    5.0149 C   0  0  0  0  0  0  0  0  0  0  0  0
   -6.6093   23.7288    5.4457 N   0  0  0  0  0  0  0  0  0  0  0  0
   -7.8643   23.3273    5.8560 C   0  0  0  0  0  0  0  0  0  0  0  0
   -7.6714   22.2669    6.7094 C   0  0  0  0  0  0  0  0  0  0  0  0
   -6.3436   21.9919    6.8464 N   0  0  0  0  0  0  0  0  0  0  0  0
   -5.7338   22.8749    6.0857 C   0  0  0  0  0  0  0  0  0  0  0  0
   -4.5758   28.8663    5.3135 N   0  0  0  0  0  0  0  0  0  0  0  0
   -4.0726   27.9749    5.3186 H   0  0  0  0  0  0  0  0  0  0  0  0
   -4.7233   29.2703    6.7308 C   0  0  0  0  0  0  0  0  0  0  0  0
   -4.2712   30.7452    6.9732 C   0  0  0  0  0  0  0  0  0  0  0  0
   -5.3504   31.5487    7.7184 C   0  0  0  0  0  0  0  0  0  0  0  0
   -4.1107   31.3659    5.6831 O   0  0  0  0  0  0  0  0  0  0  0  0
   -5.0005   31.3628    5.2868 H   0  0  0  0  0  0  0  0  0  0  0  0
   -2.9475   30.7765    7.7383 C   0  0  0  0  0  0  0  0  0  0  0  0
   -2.1096   29.6504    7.7989 C   0  0  0  0  0  0  0  0  0  0  0  0
   -0.9057   29.6831    8.5075 C   0  0  0  0  0  0  0  0  0  0  0  0
   -0.5163   30.8433    9.1703 C   0  0  0  0  0  0  0  0  0  0  0  0
   -1.3301   31.9715    9.1248 C   0  0  0  0  0  0  0  0  0  0  0  0
   -2.5342   31.9387    8.4164 C   0  0  0  0  0  0  0  0  0  0  0  0
  1  2  1  0  0  0
  2 14  1  0  0  0
 14 16  1  0  0  0
 16 17  1  0  0  0
 17 18  1  0  0  0
 17 19  1  0  0  0
 17 21  1  0  0  0
 21 22  2  0  0  0
 22 23  1  0  0  0
 23 24  2  0  0  0
 24 25  1  0  0  0
 25 26  2  0  0  0
  2  3  1  0  0  0
  3  4  2  0  0  0
  4  5  1  0  0  0
  5  6  2  0  0  0
  6  7  1  0  0  0
  7  9  1  0  0  0
  9 10  1  0  0  0
 10 11  2  0  0  0
 11 12  1  0  0  0
 12 13  2  0  0  0
  7  8  2  0  0  0
 26 21  1  0  0  0
  8  3  1  0  0  0
 13  9  1  0  0  0
 14 15  1  0  0  0
 19 20  1  0  0  0
M  END
> <minimizedAffinity>
-9.45881

$$$$
OCNT-2308839


 22 24  0  0  0  0  0  0  0  0999 V2000
   -2.4301   26.8542    5.4667 C   0  0  0  0  0  0  0  0  0  0  0  0
   -2.5452   25.8997    4.4811 C   0  0  0  0  0  0  0  0  0  0  0  0
   -3.8720   25.9258    4.1127 N   0  0  0  0  0  0  0  0  0  0  0  0
   -4.5189   26.8644    4.8478 N   0  0  0  0  0  0  0  0  0  0  0  0
   -3.6524   27.4261    5.6773 N   0  0  0  0  0  0  0  0  0  0  0  0
   -4.5428   25.1449    3.1363 C   0  0  0  0  0  0  0  0  0  0  0  0
   -5.2248   25.7943    2.0784 C   0  0  0  0  0  0  0  0  0  0  0  0
   -5.8963   25.0544    1.0985 C   0  0  0  0  0  0  0  0  0  0  0  0
   -5.8688   23.6818    1.2012 C   0  0  0  0  0  0  0  0  0  0  0  0
   -6.4618   22.8078    0.3457 O   0  0  0  0  0  0  0  0  0  0  0  0
   -6.1005   21.5482    0.9484 C   0  0  0  0  0  0  0  0  0  0  0  0
   -5.3034   21.6924    2.1434 O   0  0  0  0  0  0  0  0  0  0  0  0
   -5.2082   23.0471    2.2264 C   0  0  0  0  0  0  0  0  0  0  0  0
   -4.5353   23.7434    3.2105 C   0  0  0  0  0  0  0  0  0  0  0  0
   -1.2356   27.2829    6.2500 C   0  0  0  0  0  0  0  0  0  0  0  0
   -1.5808   28.3732    7.2865 C   0  0  0  0  0  0  0  0  0  0  0  0
   -1.5506   27.7895    8.5979 O   0  0  0  0  0  0  0  0  0  0  0  0
   -2.1630   27.0266    8.5872 H   0  0  0  0  0  0  0  0  0  0  0  0
   -1.3876   30.8313    6.7016 C   0  0  0  0  0  0  0  0  0  0  0  0
   -0.6306   29.6122    7.2740 C   0  0  0  0  0  0  0  0  0  0  0  0
    0.5962   29.3556    6.3785 C   0  0  0  0  0  0  0  0  0  0  0  0
   -0.1496   29.9718    8.6921 C   0  0  0  0  0  0  0  0  0  0  0  0
 19 20  1  0  0  0
 20 21  1  0  0  0
 20 22  1  0  0  0
 20 16  1  0  0  0
 16 17  1  0  0  0
 16 15  1  0  0  0
 15  1  1  0  0  0
  1  2  2  0  0  0
  2  3  1  0  0  0
  3  6  1  0  0  0
  6  7  1  0  0  0
  7  8  2  0  0  0
  8  9  1  0  0  0
  9 10  1  0  0  0
 10 11  1  0  0  0
 11 12  1  0  0  0
 12 13  1  0  0  0
 13 14  1  0  0  0
  3  4  1  0  0  0
  4  5  2  0  0  0
  5  1  1  0  0  0
 14  6  2  0  0  0
 13  9  2  0  0  0
 17 18  1  0  0  0
M  END
> <minimizedAffinity>
-8.45862

$$$$
OCNT-2308851


 28 31  0  0  0  0  0  0  0  0999 V2000
   -6.5328   28.5767    5.8519 C   0  0  0  0  0  0  0  0  0  0  0  0
   -6.5454   27.2727    5.8628 N   0  0  0  0  0  0  0  0  0  0  0  0
   -6.2788   26.6978    4.6577 C   0  0  0  0  0  0  0  0  0  0  0  0
   -6.0123   27.3713    3.4877 C   0  0  0  0  0  0  0  0  0  0  0  0
   -5.8008   26.3964    2.5191 C   0  0  0  0  0  0  0  0  0  0  0  0
   -5.9130   25.1638    3.0167 N   0  0  0  0  0  0  0  0  0  0  0  0
   -6.2201   25.3382    4.3459 N   0  0  0  0  0  0  0  0  0  0  0  0
   -6.0035   28.8025    3.4832 C   0  0  0  0  0  0  0  0  0  0  0  0
   -5.7936   29.4942    2.4942 O   0  0  0  0  0  0  0  0  0  0  0  0
   -6.2619   29.3403    4.7256 N   0  0  0  0  0  0  0  0  0  0  0  0
   -6.2829   30.3473    4.7655 H   0  0  0  0  0  0  0  0  0  0  0  0
   -6.4224   24.1955    5.1798 C   0  0  0  0  0  0  0  0  0  0  0  0
   -5.3533   23.4585    5.7043 C   0  0  0  0  0  0  0  0  0  0  0  0
   -5.5942   22.3435    6.5148 C   0  0  0  0  0  0  0  0  0  0  0  0
   -6.8989   21.9553    6.8087 C   0  0  0  0  0  0  0  0  0  0  0  0
   -7.9697   22.6817    6.2955 C   0  0  0  0  0  0  0  0  0  0  0  0
   -7.7352   23.7961    5.4863 C   0  0  0  0  0  0  0  0  0  0  0  0
   -6.8268   29.3701    7.1231 C   0  0  0  0  0  0  0  0  0  0  0  0
   -2.5609   31.9008   10.0272 C   0  0  0  0  0  0  0  0  0  0  0  0
   -3.3856   30.9890    9.1157 C   0  0  0  0  0  0  0  0  0  0  0  0
   -4.4516   30.2555    9.9364 C   0  0  0  0  0  0  0  0  0  0  0  0
   -5.3116   29.3361    9.0576 C   0  0  0  0  0  0  0  0  0  0  0  0
   -5.5710   29.8664    7.7111 N   0  0  0  0  0  0  0  0  0  0  0  0
   -5.4919   31.3269    7.6805 C   0  0  0  0  0  0  0  0  0  0  0  0
   -4.0413   31.7834    7.9481 C   0  0  0  0  0  0  0  0  0  0  0  0
   -3.2090   31.6677    6.6586 C   0  0  0  0  0  0  0  0  0  0  0  0
   -4.0224   31.2841    5.5560 O   0  0  0  0  0  0  0  0  0  0  0  0
   -4.4767   32.0843    5.2415 H   0  0  0  0  0  0  0  0  0  0  0  0
 19 20  1  0  0  0
 20 21  1  0  0  0
 21 22  1  0  0  0
 22 23  1  0  0  0
 23 18  1  0  0  0
 18  1  1  0  0  0
  1  2  2  0  0  0
  2  3  1  0  0  0
  3  4  2  0  0  0
  4  5  1  0  0  0
  5  6  2  0  0  0
  6  7  1  0  0  0
  7 12  1  0  0  0
 12 13  2  0  0  0
 13 14  1  0  0  0
 14 15  2  0  0  0
 15 16  1  0  0  0
 16 17  2  0  0  0
  4  8  1  0  0  0
  8  9  2  0  0  0
  8 10  1  0  0  0
 23 24  1  0  0  0
 24 25  1  0  0  0
 25 26  1  0  0  0
 26 27  1  0  0  0
 25 20  1  0  0  0
 10  1  1  0  0  0
  7  3  1  0  0  0
 17 12  1  0  0  0
 10 11  1  0  0  0
 27 28  1  0  0  0
M  END
> <minimizedAffinity>
-9.22619

$$$$
OCNT-2308854


 26 29  0  0  0  0  0  0  0  0999 V2000
   -7.0375   29.7802    6.2239 O   0  0  0  0  0  0  0  0  0  0  0  0
   -5.8504   29.9004    5.9335 C   0  0  0  0  0  0  0  0  0  0  0  0
   -5.3529   29.5360    4.6958 N   0  0  0  0  0  0  0  0  0  0  0  0
   -4.3549   29.4743    4.5753 H   0  0  0  0  0  0  0  0  0  0  0  0
   -4.8511   30.4276    6.8764 C   0  0  0  0  0  0  0  0  0  0  0  0
   -4.8991   30.4359    8.2623 C   0  0  0  0  0  0  0  0  0  0  0  0
   -3.7310   31.0229    8.6810 N   0  0  0  0  0  0  0  0  0  0  0  0
   -3.2791   31.2736    9.9749 C   0  0  0  0  0  0  0  0  0  0  0  0
   -2.0856   31.8677   10.1467 C   0  0  0  0  0  0  0  0  0  0  0  0
   -1.3038   32.2295    8.9731 C   0  0  0  0  0  0  0  0  0  0  0  0
   -1.7499   31.9816    7.7256 C   0  0  0  0  0  0  0  0  0  0  0  0
   -3.0133   31.3526    7.5399 C   0  0  0  0  0  0  0  0  0  0  0  0
   -3.6626   31.0050    6.4518 N   0  0  0  0  0  0  0  0  0  0  0  0
   -6.1817   28.8683    3.7205 C   0  0  0  0  0  0  0  0  0  0  0  0
   -5.9674   27.3768    3.7669 C   0  0  0  0  0  0  0  0  0  0  0  0
   -6.2016   26.6699    4.9532 C   0  0  0  0  0  0  0  0  0  0  0  0
   -5.9918   25.2934    5.0096 C   0  0  0  0  0  0  0  0  0  0  0  0
   -5.5433   24.6071    3.8814 C   0  0  0  0  0  0  0  0  0  0  0  0
   -5.2991   25.2906    2.6816 C   0  0  0  0  0  0  0  0  0  0  0  0
   -5.5019   26.6808    2.6408 C   0  0  0  0  0  0  0  0  0  0  0  0
   -4.7910   24.5387    1.4755 C   0  0  0  0  0  0  0  0  0  0  0  0
   -5.8663   23.9746    0.6767 N   0  0  0  0  0  0  0  0  0  0  0  0
   -6.2657   22.6660    0.6625 C   0  0  0  0  0  0  0  0  0  0  0  0
   -7.3348   22.6323   -0.2022 C   0  0  0  0  0  0  0  0  0  0  0  0
   -7.5958   23.8814   -0.7023 N   0  0  0  0  0  0  0  0  0  0  0  0
   -6.6984   24.6700   -0.1547 C   0  0  0  0  0  0  0  0  0  0  0  0
  1  2  2  0  0  0
  2  3  1  0  0  0
  3 14  1  0  0  0
 14 15  1  0  0  0
 15 16  1  0  0  0
 16 17  2  0  0  0
 17 18  1  0  0  0
 18 19  2  0  0  0
 19 21  1  0  0  0
 21 22  1  0  0  0
 22 23  1  0  0  0
 23 24  2  0  0  0
 24 25  1  0  0  0
 25 26  2  0  0  0
 19 20  1  0  0  0
  2  5  1  0  0  0
  5  6  2  0  0  0
  6  7  1  0  0  0
  7  8  1  0  0  0
  8  9  2  0  0  0
  9 10  1  0  0  0
 10 11  2  0  0  0
 11 12  1  0  0  0
 12 13  2  0  0  0
 20 15  2  0  0  0
 13  5  1  0  0  0
 26 22  1  0  0  0
 12  7  1  0  0  0
  3  4  1  0  0  0
M  END
> <minimizedAffinity>
-9.48507

$$$$
OCNT-2308858


 26 29  0  0  0  0  0  0  0  0999 V2000
   -5.4437   29.0474    6.2475 N   0  0  0  0  0  0  0  0  0  0  0  0
   -6.3960   29.9270    6.7404 C   0  0  0  0  0  0  0  0  0  0  0  0
   -7.5372   30.0751    6.3214 O   0  0  0  0  0  0  0  0  0  0  0  0
   -4.5427   29.0543    6.7094 H   0  0  0  0  0  0  0  0  0  0  0  0
   -6.3597   22.8731    1.4103 C   0  0  0  0  0  0  0  0  0  0  0  0
   -6.0725   23.8581    2.4363 N   0  0  0  0  0  0  0  0  0  0  0  0
   -6.4512   23.5344    3.8038 C   0  0  0  0  0  0  0  0  0  0  0  0
   -5.6458   24.3386    4.8179 C   0  0  0  0  0  0  0  0  0  0  0  0
   -5.7023   25.8026    4.4830 C   0  0  0  0  0  0  0  0  0  0  0  0
   -5.5635   26.7753    5.4864 C   0  0  0  0  0  0  0  0  0  0  0  0
   -5.5809   28.1429    5.1742 C   0  0  0  0  0  0  0  0  0  0  0  0
   -5.7268   28.5288    3.8411 C   0  0  0  0  0  0  0  0  0  0  0  0
   -5.8489   27.5664    2.8319 C   0  0  0  0  0  0  0  0  0  0  0  0
   -5.8357   26.2048    3.1468 C   0  0  0  0  0  0  0  0  0  0  0  0
   -5.9491   25.1955    2.0514 C   0  0  0  0  0  0  0  0  0  0  0  0
   -5.9284   25.5628    0.8806 O   0  0  0  0  0  0  0  0  0  0  0  0
   -5.8485   30.7341    7.9070 C   0  0  0  0  0  0  0  0  0  0  0  0
   -4.8445   31.8021    7.4662 C   0  0  0  0  0  0  0  0  0  0  0  0
   -5.0869   33.1785    8.1299 C   0  0  0  0  0  0  0  0  0  0  0  0
   -4.2802   33.1992    9.4369 C   0  0  0  0  0  0  0  0  0  0  0  0
   -3.1499   32.2818    9.0946 C   0  0  0  0  0  0  0  0  0  0  0  0
   -1.9415   32.1386    9.7552 C   0  0  0  0  0  0  0  0  0  0  0  0
   -1.0308   31.1956    9.2741 C   0  0  0  0  0  0  0  0  0  0  0  0
   -1.3401   30.4091    8.1534 C   0  0  0  0  0  0  0  0  0  0  0  0
   -2.5662   30.5518    7.5006 C   0  0  0  0  0  0  0  0  0  0  0  0
   -3.4640   31.4909    7.9835 C   0  0  0  0  0  0  0  0  0  0  0  0
  5  6  1  0  0  0
  6  7  1  0  0  0
  7  8  1  0  0  0
  8  9  1  0  0  0
  9 10  1  0  0  0
 10 11  2  0  0  0
 11  1  1  0  0  0
  1  2  1  0  0  0
  2  3  2  0  0  0
  2 17  1  0  0  0
 17 18  1  0  0  0
 18 19  1  0  0  0
 19 20  1  0  0  0
 20 21  1  0  0  0
 21 22  2  0  0  0
 22 23  1  0  0  0
 23 24  2  0  0  0
 24 25  1  0  0  0
 25 26  2  0  0  0
 11 12  1  0  0  0
 12 13  2  0  0  0
 13 14  1  0  0  0
 14 15  1  0  0  0
 15 16  2  0  0  0
 15  6  1  0  0  0
 14  9  2  0  0  0
 26 18  1  0  0  0
 26 21  1  0  0  0
  1  4  1  0  0  0
M  END
> <minimizedAffinity>
-10.39270

$$$$
OCNT-2308864


 26 29  0  0  0  0  0  0  0  0999 V2000
   -3.0701   30.8871    8.9778 C   0  0  0  0  0  0  0  0  0  0  0  0
   -3.3547   30.3016   10.0204 O   0  0  0  0  0  0  0  0  0  0  0  0
   -2.0085   30.5360    8.1370 N   0  0  0  0  0  0  0  0  0  0  0  0
   -1.7910   31.1433    6.8298 C   0  0  0  0  0  0  0  0  0  0  0  0
   -1.1636   29.3988    8.5726 C   0  0  0  0  0  0  0  0  0  0  0  0
    0.3280   29.4732    8.2213 C   0  0  0  0  0  0  0  0  0  0  0  0
    0.6749   29.0987    6.7812 C   0  0  0  0  0  0  0  0  0  0  0  0
   -0.1734   28.0075    6.1835 C   0  0  0  0  0  0  0  0  0  0  0  0
    0.1901   27.4817    4.9326 C   0  0  0  0  0  0  0  0  0  0  0  0
   -0.5784   26.4902    4.3235 C   0  0  0  0  0  0  0  0  0  0  0  0
   -1.7214   26.0133    4.9557 C   0  0  0  0  0  0  0  0  0  0  0  0
   -2.0967   26.5321    6.1943 C   0  0  0  0  0  0  0  0  0  0  0  0
   -1.3377   27.5398    6.8114 C   0  0  0  0  0  0  0  0  0  0  0  0
   -1.7570   28.0350    8.1728 C   0  0  0  0  0  0  0  0  0  0  0  0
   -5.0878   31.8109    7.7991 C   0  0  0  0  0  0  0  0  0  0  0  0
   -5.8269   32.9486    7.4270 C   0  0  0  0  0  0  0  0  0  0  0  0
   -5.4389   34.2292    7.8358 C   0  0  0  0  0  0  0  0  0  0  0  0
   -4.2981   34.4001    8.6162 C   0  0  0  0  0  0  0  0  0  0  0  0
   -3.5452   33.2904    8.9908 C   0  0  0  0  0  0  0  0  0  0  0  0
   -3.9489   32.0056    8.5960 C   0  0  0  0  0  0  0  0  0  0  0  0
   -5.3297   28.0136    4.8703 C   0  0  0  0  0  0  0  0  0  0  0  0
   -5.6373   28.8153    6.0654 C   0  0  0  0  0  0  0  0  0  0  0  0
   -6.4119   28.5352    7.0896 N   0  0  0  0  0  0  0  0  0  0  0  0
   -6.3349   29.6205    7.9382 N   0  0  0  0  0  0  0  0  0  0  0  0
   -5.5215   30.4887    7.3717 C   0  0  0  0  0  0  0  0  0  0  0  0
   -5.0477   30.0460    6.1607 O   0  0  0  0  0  0  0  0  0  0  0  0
 21 22  1  0  0  0
 22 23  2  0  0  0
 23 24  1  0  0  0
 24 25  2  0  0  0
 25 15  1  0  0  0
 15 16  2  0  0  0
 16 17  1  0  0  0
 17 18  2  0  0  0
 18 19  1  0  0  0
 19 20  2  0  0  0
 20  1  1  0  0  0
  1  2  2  0  0  0
  1  3  1  0  0  0
  3  4  1  0  0  0
  3  5  1  0  0  0
  5  6  1  0  0  0
  6  7  1  0  0  0
  7  8  1  0  0  0
  8  9  2  0  0  0
  9 10  1  0  0  0
 10 11  2  0  0  0
 11 12  1  0  0  0
 12 13  2  0  0  0
 13 14  1  0  0  0
 25 26  1  0  0  0
 26 22  1  0  0  0
 20 15  1  0  0  0
 14  5  1  0  0  0
 13  8  1  0  0  0
M  END
> <minimizedAffinity>
-9.11248

$$$$
OCNT-2308872


 23 25  0  0  0  0  0  0  0  0999 V2000
   -5.3085   30.7412    6.4564 N   0  0  0  0  0  0  0  0  0  0  0  0
   -6.1002   29.6421    6.6587 C   0  0  0  0  0  0  0  0  0  0  0  0
   -6.4712   29.2366    7.7507 O   0  0  0  0  0  0  0  0  0  0  0  0
   -5.2248   31.1069    5.5176 H   0  0  0  0  0  0  0  0  0  0  0  0
   -6.5366   28.9583    5.4186 C   0  0  0  0  0  0  0  0  0  0  0  0
   -6.2167   29.4818    4.0432 C   0  0  0  0  0  0  0  0  0  0  0  0
   -5.4780   28.2757    4.5663 C   0  0  0  0  0  0  0  0  0  0  0  0
   -5.7528   26.8956    4.0238 C   0  0  0  0  0  0  0  0  0  0  0  0
   -6.1211   25.8477    4.8774 C   0  0  0  0  0  0  0  0  0  0  0  0
   -6.3474   24.5847    4.3525 C   0  0  0  0  0  0  0  0  0  0  0  0
   -6.2348   24.2881    3.0418 N   0  0  0  0  0  0  0  0  0  0  0  0
   -5.8708   25.2992    2.2275 C   0  0  0  0  0  0  0  0  0  0  0  0
   -5.6202   26.5917    2.6642 C   0  0  0  0  0  0  0  0  0  0  0  0
   -4.9391   31.5943    7.5579 C   0  0  0  0  0  0  0  0  0  0  0  0
   -1.3398   30.1525    8.1988 C   0  0  0  0  0  0  0  0  0  0  0  0
   -1.5165   31.1763    9.1090 C   0  0  0  0  0  0  0  0  0  0  0  0
   -2.7899   31.8013    8.9822 C   0  0  0  0  0  0  0  0  0  0  0  0
   -3.5508   31.2371    7.9773 C   0  0  0  0  0  0  0  0  0  0  0  0
   -2.7092   29.9643    7.1942 S   0  0  0  0  0  0  0  0  0  0  0  0
    0.6748   29.5201    6.3445 C   0  0  0  0  0  0  0  0  0  0  0  0
    0.0199   29.0396    7.9209 S   0  0  0  0  0  0  0  0  0  0  0  0
    0.9857   29.3832    8.9456 O   0  0  0  0  0  0  0  0  0  0  0  0
   -0.5582   27.7149    7.8254 O   0  0  0  0  0  0  0  0  0  0  0  0
 20 21  1  0  0  0
 21 22  2  0  0  0
 21 23  2  0  0  0
 21 15  1  0  0  0
 15 16  2  0  0  0
 16 17  1  0  0  0
 17 18  2  0  0  0
 18 14  1  0  0  0
 14  1  1  0  0  0
  1  2  1  0  0  0
  2  3  2  0  0  0
  2  5  1  0  0  0
  5  6  1  0  0  0
  6  7  1  0  0  0
  7  8  1  0  0  0
  8  9  2  0  0  0
  9 10  1  0  0  0
 10 11  2  0  0  0
 11 12  1  0  0  0
 12 13  2  0  0  0
 18 19  1  0  0  0
 19 15  1  0  0  0
  7  5  1  0  0  0
 13  8  1  0  0  0
  1  4  1  0  0  0
M  END
> <minimizedAffinity>
-8.24634

$$$$
OCNT-2308879


 28 30  0  0  0  0  0  0  0  0999 V2000
   -3.4730   27.2968    5.0653 N   0  0  0  0  0  0  0  0  0  0  0  0
   -3.2799   27.5723    6.3955 C   0  0  0  0  0  0  0  0  0  0  0  0
   -2.6362   26.8205    7.1247 O   0  0  0  0  0  0  0  0  0  0  0  0
   -3.8793   28.7474    6.8470 N   0  0  0  0  0  0  0  0  0  0  0  0
   -4.3136   29.8300    5.9574 C   0  0  0  0  0  0  0  0  0  0  0  0
   -5.6924   30.4103    6.2740 C   0  0  0  0  0  0  0  0  0  0  0  0
   -6.6945   29.3932    6.8210 C   0  0  0  0  0  0  0  0  0  0  0  0
   -6.3762   28.8139    8.2089 C   0  0  0  0  0  0  0  0  0  0  0  0
   -5.1688   29.4378    8.9140 C   0  0  0  0  0  0  0  0  0  0  0  0
   -3.8126   29.0142    8.2983 C   0  0  0  0  0  0  0  0  0  0  0  0
   -4.3836   27.5659    4.7279 H   0  0  0  0  0  0  0  0  0  0  0  0
   -2.6316   29.9104    8.6569 C   0  0  0  0  0  0  0  0  0  0  0  0
   -2.8749   31.1951    9.1569 C   0  0  0  0  0  0  0  0  0  0  0  0
   -1.8051   32.0060    9.5044 C   0  0  0  0  0  0  0  0  0  0  0  0
   -0.5158   31.6330    9.3940 N   0  0  0  0  0  0  0  0  0  0  0  0
   -0.2908   30.3880    8.9281 C   0  0  0  0  0  0  0  0  0  0  0  0
   -1.2965   29.5031    8.5601 C   0  0  0  0  0  0  0  0  0  0  0  0
   -2.9602   26.0678    4.4737 C   0  0  0  0  0  0  0  0  0  0  0  0
   -1.5578   26.3157    3.9122 C   0  0  0  0  0  0  0  0  0  0  0  0
   -5.7874   24.6733    1.4644 C   0  0  0  0  0  0  0  0  0  0  0  0
   -5.7848   26.0019    1.8878 C   0  0  0  0  0  0  0  0  0  0  0  0
   -4.8760   26.4287    2.8664 C   0  0  0  0  0  0  0  0  0  0  0  0
   -3.9522   25.5413    3.4462 C   0  0  0  0  0  0  0  0  0  0  0  0
   -3.9505   24.2128    3.0022 C   0  0  0  0  0  0  0  0  0  0  0  0
   -4.8615   23.7930    2.0320 C   0  0  0  0  0  0  0  0  0  0  0  0
   -4.8307   22.5086    1.6453 F   0  0  0  0  0  0  0  0  0  0  0  0
   -6.9077   24.9417   -0.6191 C   0  0  0  0  0  0  0  0  0  0  0  0
   -6.6199   24.1387    0.5177 O   0  0  0  0  0  0  0  0  0  0  0  0
 27 28  1  0  0  0
 28 20  1  0  0  0
 20 21  1  0  0  0
 21 22  2  0  0  0
 22 23  1  0  0  0
 23 18  1  0  0  0
 18 19  1  0  0  0
 18  1  1  0  0  0
  1  2  1  0  0  0
  2  3  2  0  0  0
  2  4  1  0  0  0
  4  5  1  0  0  0
  5  6  1  0  0  0
  6  7  1  0  0  0
  7  8  1  0  0  0
  8  9  1  0  0  0
  9 10  1  0  0  0
 10 12  1  0  0  0
 12 13  2  0  0  0
 13 14  1  0  0  0
 14 15  2  0  0  0
 15 16  1  0  0  0
 16 17  2  0  0  0
 23 24  2  0  0  0
 24 25  1  0  0  0
 25 26  1  0  0  0
 25 20  2  0  0  0
 10  4  1  0  0  0
 17 12  1  0  0  0
  1 11  1  0  0  0
M  END
> <minimizedAffinity>
-9.12264

$$$$
OCNT-2308899


 25 27  0  0  0  0  0  0  0  0999 V2000
   -5.7345   32.3476    8.3931 N   0  0  0  0  0  0  0  0  0  0  0  0
   -6.5171   32.8483    8.7969 H   0  0  0  0  0  0  0  0  0  0  0  0
   -5.8918   31.0947    7.9235 C   0  0  0  0  0  0  0  0  0  0  0  0
   -5.7656   30.7178    6.6545 N   0  0  0  0  0  0  0  0  0  0  0  0
   -6.0103   29.3786    6.6574 N   0  0  0  0  0  0  0  0  0  0  0  0
   -6.2943   28.9241    7.9306 C   0  0  0  0  0  0  0  0  0  0  0  0
   -6.2240   30.0136    8.7630 C   0  0  0  0  0  0  0  0  0  0  0  0
   -5.9734   28.5784    5.4633 C   0  0  0  0  0  0  0  0  0  0  0  0
   -5.9529   27.2308    5.5874 N   0  0  0  0  0  0  0  0  0  0  0  0
   -5.9190   26.5180    4.4477 C   0  0  0  0  0  0  0  0  0  0  0  0
   -5.9028   27.0868    3.1973 C   0  0  0  0  0  0  0  0  0  0  0  0
   -5.9236   28.4605    3.1685 C   0  0  0  0  0  0  0  0  0  0  0  0
   -5.9581   29.2290    4.2735 N   0  0  0  0  0  0  0  0  0  0  0  0
   -4.6104   33.1728    7.9721 C   0  0  0  0  0  0  0  0  0  0  0  0
   -3.4580   33.1007    8.9799 C   0  0  0  0  0  0  0  0  0  0  0  0
   -0.4788   30.2030    7.7695 C   0  0  0  0  0  0  0  0  0  0  0  0
   -0.5652   30.6182    9.1069 C   0  0  0  0  0  0  0  0  0  0  0  0
   -1.5239   31.5547    9.5008 C   0  0  0  0  0  0  0  0  0  0  0  0
   -2.4069   32.1007    8.5621 C   0  0  0  0  0  0  0  0  0  0  0  0
   -2.3206   31.6919    7.2252 C   0  0  0  0  0  0  0  0  0  0  0  0
   -1.3627   30.7555    6.8314 C   0  0  0  0  0  0  0  0  0  0  0  0
    1.0473   29.4623    6.0909 F   0  0  0  0  0  0  0  0  0  0  0  0
    0.5719   29.2093    7.3418 C   0  0  0  0  0  0  0  0  0  0  0  0
    1.6627   29.1993    8.1595 F   0  0  0  0  0  0  0  0  0  0  0  0
    0.1189   27.9243    7.3161 F   0  0  0  0  0  0  0  0  0  0  0  0
 22 23  1  0  0  0
 23 24  1  0  0  0
 23 25  1  0  0  0
 23 16  1  0  0  0
 16 17  1  0  0  0
 17 18  2  0  0  0
 18 19  1  0  0  0
 19 15  1  0  0  0
 15 14  1  0  0  0
 14  1  1  0  0  0
  1  3  1  0  0  0
  3  4  2  0  0  0
  4  5  1  0  0  0
  5  8  1  0  0  0
  8  9  2  0  0  0
  9 10  1  0  0  0
 10 11  2  0  0  0
 11 12  1  0  0  0
 12 13  2  0  0  0
  5  6  1  0  0  0
  6  7  2  0  0  0
 19 20  2  0  0  0
 20 21  1  0  0  0
 21 16  2  0  0  0
  7  3  1  0  0  0
 13  8  1  0  0  0
  1  2  1  0  0  0
M  END
> <minimizedAffinity>
-9.25111

$$$$
OCNT-2308903


 23 25  0  0  0  0  0  0  0  0999 V2000
   -4.6480   25.8065    4.5213 C   0  0  0  0  0  0  0  0  0  0  0  0
   -2.6697   28.0611    6.4733 C   0  0  0  0  0  0  0  0  0  0  0  0
   -2.7296   26.8781    5.7786 C   0  0  0  0  0  0  0  0  0  0  0  0
   -4.0136   26.8376    5.3193 N   0  0  0  0  0  0  0  0  0  0  0  0
   -4.7122   27.9165    5.7090 N   0  0  0  0  0  0  0  0  0  0  0  0
   -3.8923   28.6781    6.4214 N   0  0  0  0  0  0  0  0  0  0  0  0
   -2.5107   30.1659    8.9495 C   0  0  0  0  0  0  0  0  0  0  0  0
   -1.4083   29.5528    8.2563 N   0  0  0  0  0  0  0  0  0  0  0  0
   -0.0893   29.7704    8.5489 C   0  0  0  0  0  0  0  0  0  0  0  0
    0.7036   29.0792    7.7627 N   0  0  0  0  0  0  0  0  0  0  0  0
   -0.1389   28.3873    6.9291 C   0  0  0  0  0  0  0  0  0  0  0  0
   -1.4586   28.6651    7.2150 C   0  0  0  0  0  0  0  0  0  0  0  0
   -4.9141   26.2920    3.0931 C   0  0  0  0  0  0  0  0  0  0  0  0
   -4.3530   27.6076    2.9464 O   0  0  0  0  0  0  0  0  0  0  0  0
   -4.7042   27.9815    2.1175 H   0  0  0  0  0  0  0  0  0  0  0  0
   -4.2542   25.3847    2.0416 C   0  0  0  0  0  0  0  0  0  0  0  0
   -5.2205   24.5348    1.2568 C   0  0  0  0  0  0  0  0  0  0  0  0
   -6.1830   25.1314    0.4273 C   0  0  0  0  0  0  0  0  0  0  0  0
   -7.0784   24.3462   -0.3047 C   0  0  0  0  0  0  0  0  0  0  0  0
   -7.0244   22.9573   -0.2110 C   0  0  0  0  0  0  0  0  0  0  0  0
   -6.0776   22.3655    0.6150 C   0  0  0  0  0  0  0  0  0  0  0  0
   -6.0296   21.0306    0.7127 F   0  0  0  0  0  0  0  0  0  0  0  0
   -5.1794   23.1369    1.3468 C   0  0  0  0  0  0  0  0  0  0  0  0
  7  8  1  0  0  0
  8  9  1  0  0  0
  9 10  2  0  0  0
 10 11  1  0  0  0
 11 12  2  0  0  0
 12  2  1  0  0  0
  2  3  2  0  0  0
  3  4  1  0  0  0
  4  1  1  0  0  0
  1 13  1  0  0  0
 13 14  1  0  0  0
 13 16  1  0  0  0
 16 17  1  0  0  0
 17 18  2  0  0  0
 18 19  1  0  0  0
 19 20  2  0  0  0
 20 21  1  0  0  0
 21 22  1  0  0  0
 21 23  2  0  0  0
  4  5  1  0  0  0
  5  6  2  0  0  0
 12  8  1  0  0  0
  6  2  1  0  0  0
 23 17  1  0  0  0
 14 15  1  0  0  0
M  END
> <minimizedAffinity>
-8.68685

$$$$
OCNT-2308915


 25 27  0  0  0  0  0  0  0  0999 V2000
   -4.8267   28.8384    7.3275 N   0  0  0  0  0  0  0  0  0  0  0  0
   -3.9014   28.1626    6.5792 C   0  0  0  0  0  0  0  0  0  0  0  0
   -2.6961   28.2431    6.7982 O   0  0  0  0  0  0  0  0  0  0  0  0
   -4.4333   27.3886    5.5612 N   0  0  0  0  0  0  0  0  0  0  0  0
   -5.8096   27.4928    5.0737 C   0  0  0  0  0  0  0  0  0  0  0  0
   -5.9115   27.1703    3.5871 C   0  0  0  0  0  0  0  0  0  0  0  0
   -5.4005   25.7531    3.2634 C   0  0  0  0  0  0  0  0  0  0  0  0
   -4.2426   25.3403    4.1961 C   0  0  0  0  0  0  0  0  0  0  0  0
   -3.5203   26.5399    4.7997 C   0  0  0  0  0  0  0  0  0  0  0  0
   -5.7352   28.4105    7.3930 H   0  0  0  0  0  0  0  0  0  0  0  0
   -5.2150   29.3172    9.7175 C   0  0  0  0  0  0  0  0  0  0  0  0
   -4.4245   29.6591    8.4538 C   0  0  0  0  0  0  0  0  0  0  0  0
   -4.6001   31.0858    8.0381 C   0  0  0  0  0  0  0  0  0  0  0  0
   -4.1179   31.7440    6.9222 C   0  0  0  0  0  0  0  0  0  0  0  0
   -4.5634   33.0307    7.0089 N   0  0  0  0  0  0  0  0  0  0  0  0
   -5.2943   33.2681    8.1076 N   0  0  0  0  0  0  0  0  0  0  0  0
   -5.3160   32.0894    8.7334 C   0  0  0  0  0  0  0  0  0  0  0  0
   -4.4089   33.7958    6.3603 H   0  0  0  0  0  0  0  0  0  0  0  0
   -5.0211   25.6754    1.7688 C   0  0  0  0  0  0  0  0  0  0  0  0
   -5.7513   24.5971    1.0029 C   0  0  0  0  0  0  0  0  0  0  0  0
   -6.6819   24.9335    0.0099 C   0  0  0  0  0  0  0  0  0  0  0  0
   -7.3549   23.9365   -0.6984 C   0  0  0  0  0  0  0  0  0  0  0  0
   -7.1025   22.5941   -0.4243 C   0  0  0  0  0  0  0  0  0  0  0  0
   -6.1751   22.2475    0.5561 C   0  0  0  0  0  0  0  0  0  0  0  0
   -5.5009   23.2433    1.2650 C   0  0  0  0  0  0  0  0  0  0  0  0
 11 12  1  0  0  0
 12  1  1  0  0  0
  1  2  1  0  0  0
  2  3  2  0  0  0
  2  4  1  0  0  0
  4  5  1  0  0  0
  5  6  1  0  0  0
  6  7  1  0  0  0
  7 19  1  0  0  0
 19 20  1  0  0  0
 20 21  2  0  0  0
 21 22  1  0  0  0
 22 23  2  0  0  0
 23 24  1  0  0  0
 24 25  2  0  0  0
  7  8  1  0  0  0
  8  9  1  0  0  0
 12 13  1  0  0  0
 13 14  2  0  0  0
 14 15  1  0  0  0
 15 16  1  0  0  0
 16 17  2  0  0  0
  9  4  1  0  0  0
 17 13  1  0  0  0
 25 20  1  0  0  0
  1 10  1  0  0  0
 15 18  1  0  0  0
M  END
> <minimizedAffinity>
-9.39043

$$$$
OCNT-2308924


 24 26  0  0  0  0  0  0  0  0999 V2000
   -5.6463   27.2302    4.1551 C   0  0  0  0  0  0  0  0  0  0  0  0
   -6.1003   28.3643    3.4811 C   0  0  0  0  0  0  0  0  0  0  0  0
   -6.0567   29.6019    4.1148 C   0  0  0  0  0  0  0  0  0  0  0  0
   -5.5450   29.7094    5.4131 C   0  0  0  0  0  0  0  0  0  0  0  0
   -5.0450   28.5940    6.0965 C   0  0  0  0  0  0  0  0  0  0  0  0
   -5.1127   27.3479    5.4481 C   0  0  0  0  0  0  0  0  0  0  0  0
   -5.7595   25.9681    2.0799 N   0  0  0  0  0  0  0  0  0  0  0  0
   -5.7223   25.9174    3.4627 C   0  0  0  0  0  0  0  0  0  0  0  0
   -5.7178   24.8836    4.1179 O   0  0  0  0  0  0  0  0  0  0  0  0
   -5.5868   26.8781    1.6662 H   0  0  0  0  0  0  0  0  0  0  0  0
   -4.4262   24.1485    1.1345 C   0  0  0  0  0  0  0  0  0  0  0  0
   -5.8154   24.7856    1.1776 C   0  0  0  0  0  0  0  0  0  0  0  0
   -6.9626   23.7827    1.4547 C   0  0  0  0  0  0  0  0  0  0  0  0
   -7.1851   23.6893   -0.0719 C   0  0  0  0  0  0  0  0  0  0  0  0
   -6.5833   22.6337   -0.6709 F   0  0  0  0  0  0  0  0  0  0  0  0
   -8.4718   23.6797   -0.4833 F   0  0  0  0  0  0  0  0  0  0  0  0
   -6.4360   25.0330   -0.2200 C   0  0  0  0  0  0  0  0  0  0  0  0
   -4.5273   28.6370    7.4050 N   0  0  0  0  0  0  0  0  0  0  0  0
   -5.1672   28.3184    8.1207 H   0  0  0  0  0  0  0  0  0  0  0  0
   -3.2684   28.9123    7.8227 C   0  0  0  0  0  0  0  0  0  0  0  0
   -2.8373   29.9962    8.4302 N   0  0  0  0  0  0  0  0  0  0  0  0
   -1.4888   29.9023    8.7066 C   0  0  0  0  0  0  0  0  0  0  0  0
   -0.8837   28.7323    8.3119 C   0  0  0  0  0  0  0  0  0  0  0  0
   -2.0400   27.7132    7.5709 S   0  0  0  0  0  0  0  0  0  0  0  0
 11 12  1  0  0  0
 12  7  1  0  0  0
  7  8  1  0  0  0
  8  9  2  0  0  0
  8  1  1  0  0  0
  1  2  1  0  0  0
  2  3  2  0  0  0
  3  4  1  0  0  0
  4  5  2  0  0  0
  5 18  1  0  0  0
 18 20  1  0  0  0
 20 21  2  0  0  0
 21 22  1  0  0  0
 22 23  2  0  0  0
 23 24  1  0  0  0
  5  6  1  0  0  0
 12 13  1  0  0  0
 13 14  1  0  0  0
 14 15  1  0  0  0
 14 16  1  0  0  0
 14 17  1  0  0  0
 17 12  1  0  0  0
  6  1  2  0  0  0
 24 20  1  0  0  0
  7 10  1  0  0  0
 18 19  1  0  0  0
M  END
> <minimizedAffinity>
-9.22020

$$$$
OCNT-2308941


 27 30  0  0  0  0  0  0  0  0999 V2000
   -2.1436   26.4583    5.6008 N   0  0  0  0  0  0  0  0  0  0  0  0
   -2.1038   26.1331    4.2639 C   0  0  0  0  0  0  0  0  0  0  0  0
   -1.0661   26.0321    3.6185 O   0  0  0  0  0  0  0  0  0  0  0  0
   -3.0121   26.7794    6.0051 H   0  0  0  0  0  0  0  0  0  0  0  0
   -3.4159   25.9396    3.5845 C   0  0  0  0  0  0  0  0  0  0  0  0
   -4.3198   26.9920    3.3963 C   0  0  0  0  0  0  0  0  0  0  0  0
   -5.5380   26.7588    2.7568 C   0  0  0  0  0  0  0  0  0  0  0  0
   -5.8639   25.4762    2.3112 C   0  0  0  0  0  0  0  0  0  0  0  0
   -4.9729   24.4108    2.5107 C   0  0  0  0  0  0  0  0  0  0  0  0
   -3.7487   24.6457    3.1510 C   0  0  0  0  0  0  0  0  0  0  0  0
   -5.3238   23.1138    2.0648 N   0  0  0  0  0  0  0  0  0  0  0  0
   -5.2915   21.9172    2.7359 C   0  0  0  0  0  0  0  0  0  0  0  0
   -5.6988   20.9581    1.9363 N   0  0  0  0  0  0  0  0  0  0  0  0
   -5.9930   21.5672    0.7459 N   0  0  0  0  0  0  0  0  0  0  0  0
   -5.7713   22.8722    0.8107 N   0  0  0  0  0  0  0  0  0  0  0  0
   -0.9432   26.8319    6.3164 C   0  0  0  0  0  0  0  0  0  0  0  0
    0.9638   29.1448    7.7016 C   0  0  0  0  0  0  0  0  0  0  0  0
   -0.5067   28.9668    7.8042 C   0  0  0  0  0  0  0  0  0  0  0  0
   -1.2697   27.9765    7.2046 C   0  0  0  0  0  0  0  0  0  0  0  0
   -2.5907   28.1425    7.5029 O   0  0  0  0  0  0  0  0  0  0  0  0
   -2.6877   29.2370    8.3021 C   0  0  0  0  0  0  0  0  0  0  0  0
   -3.8738   29.7453    8.8309 C   0  0  0  0  0  0  0  0  0  0  0  0
   -3.7596   30.8882    9.6278 C   0  0  0  0  0  0  0  0  0  0  0  0
   -2.5150   31.4676    9.8632 C   0  0  0  0  0  0  0  0  0  0  0  0
   -2.4427   32.5637   10.6308 F   0  0  0  0  0  0  0  0  0  0  0  0
   -1.3383   30.9412    9.3231 C   0  0  0  0  0  0  0  0  0  0  0  0
   -1.4303   29.7895    8.5200 C   0  0  0  0  0  0  0  0  0  0  0  0
 17 18  1  0  0  0
 18 19  2  0  0  0
 19 16  1  0  0  0
 16  1  1  0  0  0
  1  2  1  0  0  0
  2  3  2  0  0  0
  2  5  1  0  0  0
  5  6  1  0  0  0
  6  7  2  0  0  0
  7  8  1  0  0  0
  8  9  2  0  0  0
  9 11  1  0  0  0
 11 12  1  0  0  0
 12 13  2  0  0  0
 13 14  1  0  0  0
 14 15  2  0  0  0
  9 10  1  0  0  0
 19 20  1  0  0  0
 20 21  1  0  0  0
 21 22  2  0  0  0
 22 23  1  0  0  0
 23 24  2  0  0  0
 24 25  1  0  0  0
 24 26  1  0  0  0
 26 27  2  0  0  0
 27 18  1  0  0  0
 10  5  2  0  0  0
 27 21  1  0  0  0
 15 11  1  0  0  0
  1  4  1  0  0  0
M  END
> <minimizedAffinity>
-10.50620

$$$$
OCNT-2308945


 25 27  0  0  0  0  0  0  0  0999 V2000
   -6.2903   23.5550    0.8830 C   0  0  0  0  0  0  0  0  0  0  0  0
   -6.0818   24.9404    0.7432 C   0  0  0  0  0  0  0  0  0  0  0  0
   -5.7503   25.7378    1.8453 C   0  0  0  0  0  0  0  0  0  0  0  0
   -5.6230   25.1392    3.0870 C   0  0  0  0  0  0  0  0  0  0  0  0
   -5.8228   23.7659    3.2294 C   0  0  0  0  0  0  0  0  0  0  0  0
   -6.1531   22.9631    2.1453 C   0  0  0  0  0  0  0  0  0  0  0  0
   -5.6363   23.3277    4.6434 C   0  0  0  0  0  0  0  0  0  0  0  0
   -5.2799   24.6438    5.3417 C   0  0  0  0  0  0  0  0  0  0  0  0
   -5.2973   25.7194    4.3324 N   0  0  0  0  0  0  0  0  0  0  0  0
   -5.0356   27.0720    4.5456 C   0  0  0  0  0  0  0  0  0  0  0  0
   -5.0691   27.9181    3.6545 O   0  0  0  0  0  0  0  0  0  0  0  0
   -4.7317   27.3775    5.8646 N   0  0  0  0  0  0  0  0  0  0  0  0
   -4.7207   26.6249    6.5357 H   0  0  0  0  0  0  0  0  0  0  0  0
   -4.4295   28.6379    6.3623 C   0  0  0  0  0  0  0  0  0  0  0  0
   -3.1993   29.1431    6.7069 C   0  0  0  0  0  0  0  0  0  0  0  0
   -3.4081   30.4150    7.1416 N   0  0  0  0  0  0  0  0  0  0  0  0
   -2.4088   31.3451    7.6095 C   0  0  0  0  0  0  0  0  0  0  0  0
   -4.6989   30.7893    7.1087 N   0  0  0  0  0  0  0  0  0  0  0  0
   -5.3437   29.7042    6.6292 C   0  0  0  0  0  0  0  0  0  0  0  0
   -6.8297   29.6865    6.4240 C   0  0  0  0  0  0  0  0  0  0  0  0
   -7.4356   30.7325    7.0669 F   0  0  0  0  0  0  0  0  0  0  0  0
   -7.4175   28.5603    6.9085 F   0  0  0  0  0  0  0  0  0  0  0  0
   -7.1865   29.7944    5.1167 F   0  0  0  0  0  0  0  0  0  0  0  0
   -8.1239   22.6981   -0.5986 C   0  0  0  0  0  0  0  0  0  0  0  0
   -6.6284   22.7129   -0.3216 C   0  0  0  0  0  0  0  0  0  0  0  0
 24 25  1  0  0  0
 25  1  1  0  0  0
  1  2  1  0  0  0
  2  3  2  0  0  0
  3  4  1  0  0  0
  4  5  2  0  0  0
  5  6  1  0  0  0
  5  7  1  0  0  0
  7  8  1  0  0  0
  8  9  1  0  0  0
  9 10  1  0  0  0
 10 11  2  0  0  0
 10 12  1  0  0  0
 12 14  1  0  0  0
 14 15  2  0  0  0
 15 16  1  0  0  0
 16 17  1  0  0  0
 16 18  1  0  0  0
 18 19  2  0  0  0
 19 20  1  0  0  0
 20 21  1  0  0  0
 20 22  1  0  0  0
 20 23  1  0  0  0
  6  1  2  0  0  0
 19 14  1  0  0  0
  9  4  1  0  0  0
 12 13  1  0  0  0
M  END
> <minimizedAffinity>
-9.09022

$$$$
OCNT-2308952


 22 25  0  0  0  0  0  0  0  0999 V2000
   -4.9625   28.6984    7.1092 N   0  0  0  0  0  0  0  0  0  0  0  0
   -4.5529   29.4291    6.5218 H   0  0  0  0  0  0  0  0  0  0  0  0
   -4.8162   34.4519    8.4532 Br  0  0  0  0  0  0  0  0  0  0  0  0
   -4.0170   32.7632    8.7324 C   0  0  0  0  0  0  0  0  0  0  0  0
   -2.6745   32.6952    9.1124 C   0  0  0  0  0  0  0  0  0  0  0  0
   -2.0569   31.4532    9.3229 C   0  0  0  0  0  0  0  0  0  0  0  0
   -2.7704   30.2662    9.1448 C   0  0  0  0  0  0  0  0  0  0  0  0
   -4.1014   30.3395    8.7569 C   0  0  0  0  0  0  0  0  0  0  0  0
   -4.7282   31.5844    8.5733 C   0  0  0  0  0  0  0  0  0  0  0  0
   -6.1613   31.3890    8.1799 C   0  0  0  0  0  0  0  0  0  0  0  0
   -6.3960   29.9503    8.6600 C   0  0  0  0  0  0  0  0  0  0  0  0
   -5.0545   29.2021    8.4814 C   0  0  0  0  0  0  0  0  0  0  0  0
   -6.2548   28.3607    6.5016 C   0  0  0  0  0  0  0  0  0  0  0  0
   -6.1084   27.9949    5.0574 C   0  0  0  0  0  0  0  0  0  0  0  0
   -6.1610   28.9444    4.1009 N   0  0  0  0  0  0  0  0  0  0  0  0
   -5.9923   28.2798    2.8885 O   0  0  0  0  0  0  0  0  0  0  0  0
   -5.8498   26.9671    3.1464 C   0  0  0  0  0  0  0  0  0  0  0  0
   -5.9115   26.7198    4.4889 C   0  0  0  0  0  0  0  0  0  0  0  0
   -5.7918   25.3447    5.0130 C   0  0  0  0  0  0  0  0  0  0  0  0
   -5.2740   24.4363    4.0078 O   0  0  0  0  0  0  0  0  0  0  0  0
   -5.9190   24.5872    2.7216 C   0  0  0  0  0  0  0  0  0  0  0  0
   -5.6328   25.9678    2.0883 C   0  0  0  0  0  0  0  0  0  0  0  0
  3  4  1  0  0  0
  4  5  1  0  0  0
  5  6  2  0  0  0
  6  7  1  0  0  0
  7  8  2  0  0  0
  8  9  1  0  0  0
  9 10  1  0  0  0
 10 11  1  0  0  0
 11 12  1  0  0  0
 12  1  1  0  0  0
  1 13  1  0  0  0
 13 14  1  0  0  0
 14 15  2  0  0  0
 15 16  1  0  0  0
 16 17  1  0  0  0
 17 18  2  0  0  0
 18 19  1  0  0  0
 19 20  1  0  0  0
 20 21  1  0  0  0
 21 22  1  0  0  0
  9  4  2  0  0  0
 18 14  1  0  0  0
 12  8  1  0  0  0
 22 17  1  0  0  0
  1  2  1  0  0  0
M  END
> <minimizedAffinity>
-8.72801

$$$$
OCNT-2308954


 28 31  0  0  0  0  0  0  0  0999 V2000
   -0.6540   27.7106    7.3848 N   0  0  0  0  0  0  0  0  0  0  0  0
   -1.3672   27.7621    8.1111 H   0  0  0  0  0  0  0  0  0  0  0  0
   -3.4324   27.7275    6.4434 C   0  0  0  0  0  0  0  0  0  0  0  0
   -2.3230   27.0551    5.6726 C   0  0  0  0  0  0  0  0  0  0  0  0
   -0.9985   27.0636    6.1614 C   0  0  0  0  0  0  0  0  0  0  0  0
    0.0421   26.4711    5.4401 C   0  0  0  0  0  0  0  0  0  0  0  0
   -0.2119   25.8546    4.2227 C   0  0  0  0  0  0  0  0  0  0  0  0
   -1.5140   25.8185    3.7326 C   0  0  0  0  0  0  0  0  0  0  0  0
   -2.5863   26.3923    4.4458 C   0  0  0  0  0  0  0  0  0  0  0  0
   -3.9167   26.2627    3.8423 C   0  0  0  0  0  0  0  0  0  0  0  0
   -4.5598   27.1205    3.0693 N   0  0  0  0  0  0  0  0  0  0  0  0
   -5.7239   26.4719    2.7459 C   0  0  0  0  0  0  0  0  0  0  0  0
   -5.7357   25.2261    3.3168 C   0  0  0  0  0  0  0  0  0  0  0  0
   -4.5762   25.0725    4.0130 O   0  0  0  0  0  0  0  0  0  0  0  0
    0.2456   29.1409    7.3093 S   0  0  0  0  0  0  0  0  0  0  0  0
    0.4629   29.4004    5.9013 O   0  0  0  0  0  0  0  0  0  0  0  0
    1.3551   29.0693    8.2345 O   0  0  0  0  0  0  0  0  0  0  0  0
   -0.9084   30.3615    7.8927 C   0  0  0  0  0  0  0  0  0  0  0  0
   -0.7316   30.9276    9.1738 C   0  0  0  0  0  0  0  0  0  0  0  0
   -1.6218   31.8968    9.6441 C   0  0  0  0  0  0  0  0  0  0  0  0
   -2.6519   32.2687    8.8058 C   0  0  0  0  0  0  0  0  0  0  0  0
   -3.6458   33.2012    9.0512 N   0  0  0  0  0  0  0  0  0  0  0  0
   -4.5098   33.3166    7.9685 C   0  0  0  0  0  0  0  0  0  0  0  0
   -5.4761   34.0577    7.9040 O   0  0  0  0  0  0  0  0  0  0  0  0
   -4.0257   32.3457    6.8847 C   0  0  0  0  0  0  0  0  0  0  0  0
   -2.8254   31.7223    7.5340 C   0  0  0  0  0  0  0  0  0  0  0  0
   -1.9557   30.7626    7.0512 C   0  0  0  0  0  0  0  0  0  0  0  0
   -3.7524   33.7466    9.8934 H   0  0  0  0  0  0  0  0  0  0  0  0
  3  4  1  0  0  0
  4  5  1  0  0  0
  5  1  1  0  0  0
  1 15  1  0  0  0
 15 16  2  0  0  0
 15 17  2  0  0  0
 15 18  1  0  0  0
 18 19  1  0  0  0
 19 20  2  0  0  0
 20 21  1  0  0  0
 21 22  1  0  0  0
 22 23  1  0  0  0
 23 24  2  0  0  0
 23 25  1  0  0  0
 25 26  1  0  0  0
 26 27  1  0  0  0
  5  6  2  0  0  0
  6  7  1  0  0  0
  7  8  2  0  0  0
  8  9  1  0  0  0
  9 10  1  0  0  0
 10 11  2  0  0  0
 11 12  1  0  0  0
 12 13  2  0  0  0
 13 14  1  0  0  0
  9  4  2  0  0  0
 14 10  1  0  0  0
 27 18  2  0  0  0
 26 21  2  0  0  0
  1  2  1  0  0  0
 22 28  1  0  0  0
M  END
> <minimizedAffinity>
-9.85678

$$$$
OCNT-2308968


 32 35  0  0  0  0  0  0  0  0999 V2000
   -2.0494   25.8927    5.4155 C   0  0  0  0  0  0  0  0  0  0  0  0
   -0.6089   28.7583    7.2114 N   0  0  0  0  0  0  0  0  0  0  0  0
    0.3850   29.2557    6.2629 C   0  0  0  0  0  0  0  0  0  0  0  0
   -1.3266   27.5844    7.0376 C   0  0  0  0  0  0  0  0  0  0  0  0
   -1.9537   27.0422    7.9441 O   0  0  0  0  0  0  0  0  0  0  0  0
   -1.2934   27.0762    5.7650 N   0  0  0  0  0  0  0  0  0  0  0  0
   -1.2321   27.7719    5.0398 H   0  0  0  0  0  0  0  0  0  0  0  0
   -0.7400   29.4559    8.5067 C   0  0  0  0  0  0  0  0  0  0  0  0
    0.6439   29.8183    9.0642 C   0  0  0  0  0  0  0  0  0  0  0  0
   -4.5721   33.8799    8.4386 C   0  0  0  0  0  0  0  0  0  0  0  0
   -3.5995   32.7384    8.4328 C   0  0  0  0  0  0  0  0  0  0  0  0
   -3.3899   31.9754    7.2803 C   0  0  0  0  0  0  0  0  0  0  0  0
   -2.4733   30.9188    7.2817 C   0  0  0  0  0  0  0  0  0  0  0  0
   -1.7424   30.6035    8.4358 C   0  0  0  0  0  0  0  0  0  0  0  0
   -1.9641   31.3727    9.5908 C   0  0  0  0  0  0  0  0  0  0  0  0
   -2.8782   32.4288    9.5895 C   0  0  0  0  0  0  0  0  0  0  0  0
   -3.2042   26.2329    4.5056 C   0  0  0  0  0  0  0  0  0  0  0  0
   -4.1745   27.1627    4.8989 C   0  0  0  0  0  0  0  0  0  0  0  0
   -5.2529   27.4522    4.0640 C   0  0  0  0  0  0  0  0  0  0  0  0
   -5.3774   26.8107    2.8318 C   0  0  0  0  0  0  0  0  0  0  0  0
   -4.4219   25.8728    2.4167 C   0  0  0  0  0  0  0  0  0  0  0  0
   -3.3410   25.5898    3.2653 C   0  0  0  0  0  0  0  0  0  0  0  0
   -4.5531   25.1617    1.0929 C   0  0  0  0  0  0  0  0  0  0  0  0
   -5.7117   24.2870    1.0577 N   0  0  0  0  0  0  0  0  0  0  0  0
   -6.7477   24.3976    0.1700 C   0  0  0  0  0  0  0  0  0  0  0  0
   -7.6363   23.4457    0.3379 N   0  0  0  0  0  0  0  0  0  0  0  0
   -7.1583   22.6881    1.3789 C   0  0  0  0  0  0  0  0  0  0  0  0
   -7.7122   21.5457    1.9757 C   0  0  0  0  0  0  0  0  0  0  0  0
   -7.0284   20.9375    3.0351 C   0  0  0  0  0  0  0  0  0  0  0  0
   -5.8158   21.4559    3.4921 C   0  0  0  0  0  0  0  0  0  0  0  0
   -5.2462   22.5941    2.9097 C   0  0  0  0  0  0  0  0  0  0  0  0
   -5.9462   23.1886    1.8516 C   0  0  0  0  0  0  0  0  0  0  0  0
 10 11  1  0  0  0
 11 12  1  0  0  0
 12 13  2  0  0  0
 13 14  1  0  0  0
 14  8  1  0  0  0
  8  9  1  0  0  0
  8  2  1  0  0  0
  2  3  1  0  0  0
  2  4  1  0  0  0
  4  5  2  0  0  0
  4  6  1  0  0  0
  6  1  1  0  0  0
  1 17  1  0  0  0
 17 18  1  0  0  0
 18 19  2  0  0  0
 19 20  1  0  0  0
 20 21  2  0  0  0
 21 23  1  0  0  0
 23 24  1  0  0  0
 24 25  1  0  0  0
 25 26  2  0  0  0
 26 27  1  0  0  0
 27 28  2  0  0  0
 28 29  1  0  0  0
 29 30  2  0  0  0
 30 31  1  0  0  0
 31 32  2  0  0  0
 21 22  1  0  0  0
 14 15  2  0  0  0
 15 16  1  0  0  0
 16 11  2  0  0  0
 22 17  2  0  0  0
 32 24  1  0  0  0
 32 27  1  0  0  0
  6  7  1  0  0  0
M  END
> <minimizedAffinity>
-11.11192

$$$$
OCNT-2308971


 28 30  0  0  0  0  0  0  0  0999 V2000
   -4.6966   28.5282    4.9175 N   0  0  0  0  0  0  0  0  0  0  0  0
   -4.4512   28.8413    6.2297 C   0  0  0  0  0  0  0  0  0  0  0  0
   -5.0778   28.3820    7.1742 O   0  0  0  0  0  0  0  0  0  0  0  0
   -3.4069   29.7166    6.3397 N   0  0  0  0  0  0  0  0  0  0  0  0
   -4.5435   29.3021    4.2817 H   0  0  0  0  0  0  0  0  0  0  0  0
   -2.8233   29.8220    5.5263 H   0  0  0  0  0  0  0  0  0  0  0  0
   -5.8501   27.7207    4.5877 C   0  0  0  0  0  0  0  0  0  0  0  0
   -6.0598   25.2570    0.2035 C   0  0  0  0  0  0  0  0  0  0  0  0
   -5.4590   25.3643    1.5709 C   0  0  0  0  0  0  0  0  0  0  0  0
   -4.5194   24.5251    2.0312 C   0  0  0  0  0  0  0  0  0  0  0  0
   -4.0127   24.6739    3.2957 N   0  0  0  0  0  0  0  0  0  0  0  0
   -4.4118   25.6496    4.1773 C   0  0  0  0  0  0  0  0  0  0  0  0
   -3.9607   25.7187    5.3166 O   0  0  0  0  0  0  0  0  0  0  0  0
   -5.4431   26.6076    3.6766 C   0  0  0  0  0  0  0  0  0  0  0  0
   -5.9209   26.4403    2.4292 C   0  0  0  0  0  0  0  0  0  0  0  0
   -3.3127   24.0291    3.6415 H   0  0  0  0  0  0  0  0  0  0  0  0
   -2.8948   30.1710    7.6228 C   0  0  0  0  0  0  0  0  0  0  0  0
   -3.5091   31.5147    7.9990 C   0  0  0  0  0  0  0  0  0  0  0  0
   -3.3434   32.0056    9.3053 C   0  0  0  0  0  0  0  0  0  0  0  0
   -3.8821   33.2375    9.6822 C   0  0  0  0  0  0  0  0  0  0  0  0
   -4.5932   33.9995    8.7591 C   0  0  0  0  0  0  0  0  0  0  0  0
   -4.7660   33.5304    7.4595 C   0  0  0  0  0  0  0  0  0  0  0  0
   -4.2281   32.2978    7.0812 C   0  0  0  0  0  0  0  0  0  0  0  0
   -1.3504   30.2067    7.7095 C   0  0  0  0  0  0  0  0  0  0  0  0
   -0.7529   29.3018    8.7897 C   0  0  0  0  0  0  0  0  0  0  0  0
    0.7371   29.3375    8.4820 C   0  0  0  0  0  0  0  0  0  0  0  0
    0.8275   29.4171    6.9601 C   0  0  0  0  0  0  0  0  0  0  0  0
   -0.5766   29.7673    6.4613 C   0  0  0  0  0  0  0  0  0  0  0  0
  8  9  1  0  0  0
  9 10  2  0  0  0
 10 11  1  0  0  0
 11 12  1  0  0  0
 12 13  2  0  0  0
 12 14  1  0  0  0
 14  7  1  0  0  0
  7  1  1  0  0  0
  1  2  1  0  0  0
  2  3  2  0  0  0
  2  4  1  0  0  0
  4 17  1  0  0  0
 17 18  1  0  0  0
 18 19  2  0  0  0
 19 20  1  0  0  0
 20 21  2  0  0  0
 21 22  1  0  0  0
 22 23  2  0  0  0
 17 24  1  0  0  0
 24 25  1  0  0  0
 25 26  1  0  0  0
 26 27  1  0  0  0
 27 28  1  0  0  0
 14 15  2  0  0  0
 15  9  1  0  0  0
 23 18  1  0  0  0
 28 24  1  0  0  0
 11 16  1  0  0  0
  1  5  1  0  0  0
  4  6  1  0  0  0
M  END
> <minimizedAffinity>
-9.55684

$$$$
OCNT-2308982


 25 27  0  0  0  0  0  0  0  0999 V2000
   -5.3157   29.8686    6.1772 C   0  0  0  0  0  0  0  0  0  0  0  0
   -5.9995   29.9127    7.1948 O   0  0  0  0  0  0  0  0  0  0  0  0
   -4.2889   30.7483    5.9308 N   0  0  0  0  0  0  0  0  0  0  0  0
   -3.7064   30.6064    5.1159 H   0  0  0  0  0  0  0  0  0  0  0  0
   -5.8171   27.1170    3.8235 C   0  0  0  0  0  0  0  0  0  0  0  0
   -5.9546   28.1854    3.0313 N   0  0  0  0  0  0  0  0  0  0  0  0
   -5.7713   29.2272    3.8587 N   0  0  0  0  0  0  0  0  0  0  0  0
   -5.5259   28.8746    5.1590 C   0  0  0  0  0  0  0  0  0  0  0  0
   -5.5477   27.4934    5.1613 C   0  0  0  0  0  0  0  0  0  0  0  0
   -5.8261   30.1698    3.4848 H   0  0  0  0  0  0  0  0  0  0  0  0
   -5.9519   25.7385    3.2678 C   0  0  0  0  0  0  0  0  0  0  0  0
   -4.5097   24.8531    1.3995 C   0  0  0  0  0  0  0  0  0  0  0  0
   -5.7197   25.7014    1.7568 C   0  0  0  0  0  0  0  0  0  0  0  0
   -3.8752   31.7393    6.8924 C   0  0  0  0  0  0  0  0  0  0  0  0
   -2.4220   31.6043    7.2906 C   0  0  0  0  0  0  0  0  0  0  0  0
   -1.7181   30.4296    6.6572 C   0  0  0  0  0  0  0  0  0  0  0  0
   -0.6186   30.0878    7.5779 N   0  0  0  0  0  0  0  0  0  0  0  0
   -1.0279   30.5031    8.9324 C   0  0  0  0  0  0  0  0  0  0  0  0
   -1.9755   31.6451    8.7283 C   0  0  0  0  0  0  0  0  0  0  0  0
   -1.6010   32.7889    7.7971 C   0  0  0  0  0  0  0  0  0  0  0  0
    0.1923   30.6461    7.3095 H   0  0  0  0  0  0  0  0  0  0  0  0
   -2.9016   31.8745    9.8747 C   0  0  0  0  0  0  0  0  0  0  0  0
   -3.7646   30.8420   10.0099 F   0  0  0  0  0  0  0  0  0  0  0  0
   -2.2125   31.9972   11.0313 F   0  0  0  0  0  0  0  0  0  0  0  0
   -3.6427   33.0005    9.7209 F   0  0  0  0  0  0  0  0  0  0  0  0
 12 13  1  0  0  0
 13 11  1  0  0  0
 11  5  1  0  0  0
  5  6  2  0  0  0
  6  7  1  0  0  0
  7  8  1  0  0  0
  8  1  1  0  0  0
  1  2  2  0  0  0
  1  3  1  0  0  0
  3 14  1  0  0  0
 15 14  1  0  0  0
 15 16  1  0  0  0
 16 17  1  0  0  0
 17 18  1  0  0  0
 18 19  1  0  0  0
 19 22  1  0  0  0
 22 23  1  0  0  0
 22 24  1  0  0  0
 22 25  1  0  0  0
 19 20  1  0  0  0
  8  9  2  0  0  0
  9  5  1  0  0  0
 19 15  1  0  0  0
 20 15  1  0  0  0
  7 10  1  0  0  0
  3  4  1  0  0  0
 17 21  1  0  0  0
M  END
> <minimizedAffinity>
-8.16523

$$$$
OCNT-2308998


 28 30  0  0  0  0  0  0  0  0999 V2000
   -2.8946   27.0482    5.8159 C   0  0  0  0  0  0  0  0  0  0  0  0
   -2.3745   26.0476    6.2974 O   0  0  0  0  0  0  0  0  0  0  0  0
   -2.5172   28.3556    6.0469 N   0  0  0  0  0  0  0  0  0  0  0  0
   -2.9579   29.0881    5.4870 H   0  0  0  0  0  0  0  0  0  0  0  0
   -5.2595   25.3810    3.3715 C   0  0  0  0  0  0  0  0  0  0  0  0
   -6.0861   26.4761    3.1133 C   0  0  0  0  0  0  0  0  0  0  0  0
   -5.9450   27.7035    3.6720 N   0  0  0  0  0  0  0  0  0  0  0  0
   -4.9142   27.8629    4.5364 C   0  0  0  0  0  0  0  0  0  0  0  0
   -4.0131   26.8563    4.8557 C   0  0  0  0  0  0  0  0  0  0  0  0
   -4.2056   25.5985    4.2704 C   0  0  0  0  0  0  0  0  0  0  0  0
   -7.2075   22.6335   -0.3555 C   0  0  0  0  0  0  0  0  0  0  0  0
   -6.4069   22.7232    0.9101 C   0  0  0  0  0  0  0  0  0  0  0  0
   -5.9129   21.5665    1.5194 C   0  0  0  0  0  0  0  0  0  0  0  0
   -5.2024   21.6516    2.7149 C   0  0  0  0  0  0  0  0  0  0  0  0
   -4.9882   22.8936    3.3161 C   0  0  0  0  0  0  0  0  0  0  0  0
   -5.4817   24.0735    2.7361 C   0  0  0  0  0  0  0  0  0  0  0  0
   -6.1978   23.9648    1.5302 C   0  0  0  0  0  0  0  0  0  0  0  0
   -1.5445   28.8457    6.9576 C   0  0  0  0  0  0  0  0  0  0  0  0
   -0.1795   28.5712    6.8112 C   0  0  0  0  0  0  0  0  0  0  0  0
    0.7529   29.0417    7.7409 C   0  0  0  0  0  0  0  0  0  0  0  0
    0.3358   29.7857    8.8388 C   0  0  0  0  0  0  0  0  0  0  0  0
   -1.0178   30.0736    9.0054 C   0  0  0  0  0  0  0  0  0  0  0  0
   -1.9625   29.6239    8.0656 C   0  0  0  0  0  0  0  0  0  0  0  0
   -3.4076   29.9571    8.2524 C   0  0  0  0  0  0  0  0  0  0  0  0
   -4.0240   29.5361    9.3990 N   0  0  0  0  0  0  0  0  0  0  0  0
   -4.0230   30.6311    7.4318 O   0  0  0  0  0  0  0  0  0  0  0  0
   -3.5046   29.2536   10.2181 H   0  0  0  0  0  0  0  0  0  0  0  0
   -4.9618   29.8872    9.5522 H   0  0  0  0  0  0  0  0  0  0  0  0
 11 12  1  0  0  0
 12 13  2  0  0  0
 13 14  1  0  0  0
 14 15  2  0  0  0
 15 16  1  0  0  0
 16  5  1  0  0  0
  5  6  2  0  0  0
  6  7  1  0  0  0
  7  8  2  0  0  0
  8  9  1  0  0  0
  9  1  1  0  0  0
  1  2  2  0  0  0
  1  3  1  0  0  0
  3 18  1  0  0  0
 18 19  2  0  0  0
 19 20  1  0  0  0
 20 21  2  0  0  0
 21 22  1  0  0  0
 22 23  2  0  0  0
 23 24  1  0  0  0
 24 25  1  0  0  0
 24 26  2  0  0  0
  9 10  2  0  0  0
 16 17  2  0  0  0
 17 12  1  0  0  0
 10  5  1  0  0  0
 23 18  1  0  0  0
  3  4  1  0  0  0
 25 27  1  0  0  0
 25 28  1  0  0  0
M  END
> <minimizedAffinity>
-9.89386

$$$$
OCNT-2309000


 26 28  0  0  0  0  0  0  0  0999 V2000
   -4.7064   27.1158    3.5769 C   0  0  0  0  0  0  0  0  0  0  0  0
   -6.0359   27.7209    4.0326 C   0  0  0  0  0  0  0  0  0  0  0  0
   -6.1140   29.2325    3.7696 C   0  0  0  0  0  0  0  0  0  0  0  0
   -6.4869   29.8492    5.1094 C   0  0  0  0  0  0  0  0  0  0  0  0
   -5.8861   28.9157    6.0621 N   0  0  0  0  0  0  0  0  0  0  0  0
   -6.2297   27.5868    5.5455 C   0  0  0  0  0  0  0  0  0  0  0  0
   -6.3590   29.0994    7.4414 C   0  0  0  0  0  0  0  0  0  0  0  0
   -6.6292   30.5733    7.7835 C   0  0  0  0  0  0  0  0  0  0  0  0
   -5.4126   31.2357    8.3859 C   0  0  0  0  0  0  0  0  0  0  0  0
   -4.9681   32.4745    7.9050 C   0  0  0  0  0  0  0  0  0  0  0  0
   -3.8328   33.0775    8.4481 C   0  0  0  0  0  0  0  0  0  0  0  0
   -3.1298   32.4468    9.4728 C   0  0  0  0  0  0  0  0  0  0  0  0
   -3.5604   31.2120    9.9548 C   0  0  0  0  0  0  0  0  0  0  0  0
   -4.6956   30.6071    9.4129 C   0  0  0  0  0  0  0  0  0  0  0  0
   -2.0973   26.1136    3.3568 O   0  0  0  0  0  0  0  0  0  0  0  0
   -2.5121   26.4348    4.4662 C   0  0  0  0  0  0  0  0  0  0  0  0
   -3.7547   27.0154    4.6707 N   0  0  0  0  0  0  0  0  0  0  0  0
   -4.1297   26.9714    5.6095 H   0  0  0  0  0  0  0  0  0  0  0  0
   -1.7010   26.2691    5.7655 C   0  0  0  0  0  0  0  0  0  0  0  0
   -1.0086   27.4162    6.2298 O   0  0  0  0  0  0  0  0  0  0  0  0
   -1.3288   27.7812    7.5793 C   0  0  0  0  0  0  0  0  0  0  0  0
   -2.6434   28.5609    7.5450 C   0  0  0  0  0  0  0  0  0  0  0  0
   -2.5438   29.8511    6.7254 C   0  0  0  0  0  0  0  0  0  0  0  0
   -1.1620   30.5035    6.7782 C   0  0  0  0  0  0  0  0  0  0  0  0
   -0.4111   30.1398    8.0504 C   0  0  0  0  0  0  0  0  0  0  0  0
   -0.1916   28.6280    8.1774 C   0  0  0  0  0  0  0  0  0  0  0  0
 15 16  2  0  0  0
 16 19  1  0  0  0
 19 20  1  0  0  0
 20 21  1  0  0  0
 21 22  1  0  0  0
 22 23  1  0  0  0
 23 24  1  0  0  0
 24 25  1  0  0  0
 25 26  1  0  0  0
 16 17  1  0  0  0
 17  1  1  0  0  0
  1  2  1  0  0  0
  2  3  1  0  0  0
  3  4  1  0  0  0
  4  5  1  0  0  0
  5  7  1  0  0  0
  7  8  1  0  0  0
  8  9  1  0  0  0
  9 10  2  0  0  0
 10 11  1  0  0  0
 11 12  2  0  0  0
 12 13  1  0  0  0
 13 14  2  0  0  0
  5  6  1  0  0  0
 26 21  1  0  0  0
  6  2  1  0  0  0
 14  9  1  0  0  0
 17 18  1  0  0  0
M  END
> <minimizedAffinity>
-8.18348

$$$$
OCNT-2309003


 33 37  0  0  0  0  0  0  0  0999 V2000
   -5.9160   24.9457    4.7597 C   0  0  0  0  0  0  0  0  0  0  0  0
   -6.1596   24.7845    3.2624 C   0  0  0  0  0  0  0  0  0  0  0  0
   -5.7778   25.7818    2.3430 C   0  0  0  0  0  0  0  0  0  0  0  0
   -5.9780   25.6382    0.9636 C   0  0  0  0  0  0  0  0  0  0  0  0
   -6.5706   24.4492    0.5393 C   0  0  0  0  0  0  0  0  0  0  0  0
   -6.9153   23.9778   -0.7016 N   0  0  0  0  0  0  0  0  0  0  0  0
   -7.4728   22.7404   -0.5427 C   0  0  0  0  0  0  0  0  0  0  0  0
   -7.5072   22.3815    0.7203 N   0  0  0  0  0  0  0  0  0  0  0  0
   -6.9541   23.4340    1.4084 C   0  0  0  0  0  0  0  0  0  0  0  0
   -6.7450   23.5933    2.7857 C   0  0  0  0  0  0  0  0  0  0  0  0
   -6.7857   24.4624   -1.5780 H   0  0  0  0  0  0  0  0  0  0  0  0
   -6.5431   23.8265    5.5888 C   0  0  0  0  0  0  0  0  0  0  0  0
   -5.7793   22.8542    6.2569 C   0  0  0  0  0  0  0  0  0  0  0  0
   -6.3959   21.8544    7.0132 C   0  0  0  0  0  0  0  0  0  0  0  0
   -7.7847   21.8145    7.1192 C   0  0  0  0  0  0  0  0  0  0  0  0
   -8.5583   22.7731    6.4700 C   0  0  0  0  0  0  0  0  0  0  0  0
   -7.9431   23.7711    5.7118 C   0  0  0  0  0  0  0  0  0  0  0  0
   -4.2687   27.1891    5.3869 O   0  0  0  0  0  0  0  0  0  0  0  0
   -5.4912   27.2993    5.4294 C   0  0  0  0  0  0  0  0  0  0  0  0
   -6.3528   26.2675    5.1655 N   0  0  0  0  0  0  0  0  0  0  0  0
   -7.3479   26.4766    5.1295 H   0  0  0  0  0  0  0  0  0  0  0  0
   -6.1514   28.6122    5.8298 C   0  0  0  0  0  0  0  0  0  0  0  0
   -5.8098   29.7522    4.8752 C   0  0  0  0  0  0  0  0  0  0  0  0
   -4.6005   30.4630    5.4930 C   0  0  0  0  0  0  0  0  0  0  0  0
   -4.4016   29.8280    6.8102 N   0  0  0  0  0  0  0  0  0  0  0  0
   -5.6475   29.1203    7.1734 C   0  0  0  0  0  0  0  0  0  0  0  0
   -3.9343   30.6671    7.8351 C   0  0  0  0  0  0  0  0  0  0  0  0
   -4.5047   31.9435    7.9444 C   0  0  0  0  0  0  0  0  0  0  0  0
   -4.0828   32.8404    8.9318 C   0  0  0  0  0  0  0  0  0  0  0  0
   -3.0757   32.4768    9.8251 C   0  0  0  0  0  0  0  0  0  0  0  0
   -2.4857   31.2187    9.7264 C   0  0  0  0  0  0  0  0  0  0  0  0
   -2.9112   30.3312    8.7392 C   0  0  0  0  0  0  0  0  0  0  0  0
   -2.3010   29.1369    8.6545 F   0  0  0  0  0  0  0  0  0  0  0  0
 18 19  2  0  0  0
 19 20  1  0  0  0
 20  1  1  0  0  0
  1 12  1  0  0  0
 12 13  2  0  0  0
 13 14  1  0  0  0
 14 15  2  0  0  0
 15 16  1  0  0  0
 16 17  2  0  0  0
  1  2  1  0  0  0
  2  3  2  0  0  0
  3  4  1  0  0  0
  4  5  2  0  0  0
  5  6  1  0  0  0
  6  7  1  0  0  0
  7  8  2  0  0  0
  8  9  1  0  0  0
  9 10  2  0  0  0
 19 22  1  0  0  0
 22 23  1  0  0  0
 23 24  1  0  0  0
 24 25  1  0  0  0
 25 27  1  0  0  0
 27 28  2  0  0  0
 28 29  1  0  0  0
 29 30  2  0  0  0
 30 31  1  0  0  0
 31 32  2  0  0  0
 32 33  1  0  0  0
 25 26  1  0  0  0
 17 12  1  0  0  0
 10  2  1  0  0  0
 26 22  1  0  0  0
  9  5  1  0  0  0
 32 27  1  0  0  0
 20 21  1  0  0  0
  6 11  1  0  0  0
M  END
> <minimizedAffinity>
-10.92190

$$$$
OCNT-2309014


 27 30  0  0  0  0  0  0  0  0999 V2000
   -4.3002   25.8646    4.2213 C   0  0  0  0  0  0  0  0  0  0  0  0
   -5.1721   26.7085    4.4043 O   0  0  0  0  0  0  0  0  0  0  0  0
   -4.5652   24.6299    3.6752 N   0  0  0  0  0  0  0  0  0  0  0  0
   -3.8465   23.9177    3.7127 H   0  0  0  0  0  0  0  0  0  0  0  0
   -5.9366   24.1698    3.4893 C   0  0  0  0  0  0  0  0  0  0  0  0
   -6.3186   24.1578    2.0143 C   0  0  0  0  0  0  0  0  0  0  0  0
   -5.9314   25.2261    1.1835 C   0  0  0  0  0  0  0  0  0  0  0  0
   -6.2867   25.2545   -0.1648 C   0  0  0  0  0  0  0  0  0  0  0  0
   -7.0475   24.2231   -0.7030 C   0  0  0  0  0  0  0  0  0  0  0  0
   -7.4633   23.1700    0.1096 C   0  0  0  0  0  0  0  0  0  0  0  0
   -7.1215   23.1338    1.4715 C   0  0  0  0  0  0  0  0  0  0  0  0
   -7.5953   21.9614    2.2964 C   0  0  0  0  0  0  0  0  0  0  0  0
   -7.4804   22.1899    3.8008 C   0  0  0  0  0  0  0  0  0  0  0  0
   -6.1263   22.7852    4.1679 C   0  0  0  0  0  0  0  0  0  0  0  0
   -5.0829   21.8618    3.8081 O   0  0  0  0  0  0  0  0  0  0  0  0
   -4.9430   21.9335    2.8474 H   0  0  0  0  0  0  0  0  0  0  0  0
    0.0165   28.5376    7.6857 C   0  0  0  0  0  0  0  0  0  0  0  0
   -1.1612   28.0318    7.0408 N   0  0  0  0  0  0  0  0  0  0  0  0
   -2.4639   28.2975    7.3972 C   0  0  0  0  0  0  0  0  0  0  0  0
   -2.8384   29.0023    8.3233 O   0  0  0  0  0  0  0  0  0  0  0  0
   -3.3559   27.6373    6.5397 O   0  0  0  0  0  0  0  0  0  0  0  0
   -2.5143   26.9676    5.6577 C   0  0  0  0  0  0  0  0  0  0  0  0
   -2.8905   26.1593    4.5984 C   0  0  0  0  0  0  0  0  0  0  0  0
   -1.8548   25.5881    3.8353 C   0  0  0  0  0  0  0  0  0  0  0  0
   -0.5004   25.8297    4.1406 C   0  0  0  0  0  0  0  0  0  0  0  0
   -0.1497   26.6482    5.2147 C   0  0  0  0  0  0  0  0  0  0  0  0
   -1.1804   27.1981    5.9475 C   0  0  0  0  0  0  0  0  0  0  0  0
 17 18  1  0  0  0
 18 19  1  0  0  0
 19 20  2  0  0  0
 19 21  1  0  0  0
 21 22  1  0  0  0
 22 23  2  0  0  0
 23  1  1  0  0  0
  1  2  2  0  0  0
  1  3  1  0  0  0
  3  5  1  0  0  0
  5  6  1  0  0  0
  6  7  2  0  0  0
  7  8  1  0  0  0
  8  9  2  0  0  0
  9 10  1  0  0  0
 10 11  2  0  0  0
 11 12  1  0  0  0
 12 13  1  0  0  0
 13 14  1  0  0  0
 14 15  1  0  0  0
 23 24  1  0  0  0
 24 25  2  0  0  0
 25 26  1  0  0  0
 26 27  2  0  0  0
 27 18  1  0  0  0
 27 22  1  0  0  0
 14  5  1  0  0  0
 11  6  1  0  0  0
  3  4  1  0  0  0
 15 16  1  0  0  0
M  END
> <minimizedAffinity>
-10.46774

$$$$
OCNT-2309041


 28 30  0  0  0  0  0  0  0  0999 V2000
   -3.8142   30.9781    7.8800 N   0  0  0  0  0  0  0  0  0  0  0  0
   -3.8721   32.2971    8.3050 C   0  0  0  0  0  0  0  0  0  0  0  0
   -5.0466   33.1888    8.1555 C   0  0  0  0  0  0  0  0  0  0  0  0
   -2.6989   32.6531    8.7933 N   0  0  0  0  0  0  0  0  0  0  0  0
   -1.8653   31.5667    8.7438 N   0  0  0  0  0  0  0  0  0  0  0  0
   -2.5451   30.5654    8.2348 C   0  0  0  0  0  0  0  0  0  0  0  0
   -6.1108   29.6029    3.7463 C   0  0  0  0  0  0  0  0  0  0  0  0
   -6.0034   29.5752    5.2431 C   0  0  0  0  0  0  0  0  0  0  0  0
   -6.9170   28.8497    6.0111 C   0  0  0  0  0  0  0  0  0  0  0  0
   -6.8013   28.8106    7.4038 C   0  0  0  0  0  0  0  0  0  0  0  0
   -5.7613   29.4817    8.0669 C   0  0  0  0  0  0  0  0  0  0  0  0
   -5.6722   29.3306    9.5616 C   0  0  0  0  0  0  0  0  0  0  0  0
   -4.8545   30.2248    7.2886 C   0  0  0  0  0  0  0  0  0  0  0  0
   -4.9620   30.2513    5.8872 C   0  0  0  0  0  0  0  0  0  0  0  0
   -1.9713   28.9277    8.2632 S   0  0  0  0  0  0  0  0  0  0  0  0
   -0.2002   29.1444    7.9075 C   0  0  0  0  0  0  0  0  0  0  0  0
    0.2060   28.6200    6.5405 C   0  0  0  0  0  0  0  0  0  0  0  0
    0.8462   29.3131    5.7537 O   0  0  0  0  0  0  0  0  0  0  0  0
   -0.1820   27.3220    6.2711 N   0  0  0  0  0  0  0  0  0  0  0  0
   -0.9710   26.9867    6.8162 H   0  0  0  0  0  0  0  0  0  0  0  0
   -0.0746   26.7901    4.9257 C   0  0  0  0  0  0  0  0  0  0  0  0
   -1.3257   26.0205    4.5087 C   0  0  0  0  0  0  0  0  0  0  0  0
   -2.5885   26.5708    5.1681 C   0  0  0  0  0  0  0  0  0  0  0  0
   -3.7929   26.3484    4.3915 N   0  0  0  0  0  0  0  0  0  0  0  0
   -5.0086   25.9397    4.8616 C   0  0  0  0  0  0  0  0  0  0  0  0
   -5.8324   25.8614    3.7635 C   0  0  0  0  0  0  0  0  0  0  0  0
   -5.0147   26.2248    2.6777 C   0  0  0  0  0  0  0  0  0  0  0  0
   -3.7667   26.5110    3.0552 N   0  0  0  0  0  0  0  0  0  0  0  0
  7  8  1  0  0  0
  8  9  1  0  0  0
  9 10  2  0  0  0
 10 11  1  0  0  0
 11 12  1  0  0  0
 11 13  2  0  0  0
 13  1  1  0  0  0
  1  2  1  0  0  0
  2  3  1  0  0  0
  2  4  2  0  0  0
  4  5  1  0  0  0
  5  6  2  0  0  0
  6 15  1  0  0  0
 15 16  1  0  0  0
 16 17  1  0  0  0
 17 18  2  0  0  0
 17 19  1  0  0  0
 19 21  1  0  0  0
 21 22  1  0  0  0
 22 23  1  0  0  0
 23 24  1  0  0  0
 24 25  1  0  0  0
 25 26  2  0  0  0
 26 27  1  0  0  0
 27 28  2  0  0  0
 13 14  1  0  0  0
 14  8  2  0  0  0
  6  1  1  0  0  0
 28 24  1  0  0  0
 19 20  1  0  0  0
M  END
> <minimizedAffinity>
-8.39740

$$$$
OCNT-2309057


 29 32  0  0  0  0  0  0  0  0999 V2000
   -5.7594   27.0949    4.2590 C   0  0  0  0  0  0  0  0  0  0  0  0
   -6.2284   27.8043    3.3689 O   0  0  0  0  0  0  0  0  0  0  0  0
   -5.8174   27.4478    5.5860 N   0  0  0  0  0  0  0  0  0  0  0  0
   -5.5910   26.7501    6.2884 H   0  0  0  0  0  0  0  0  0  0  0  0
   -8.6201   21.2210    3.9959 C   0  0  0  0  0  0  0  0  0  0  0  0
   -7.6865   22.3990    4.0748 C   0  0  0  0  0  0  0  0  0  0  0  0
   -7.2391   22.9943    2.8831 C   0  0  0  0  0  0  0  0  0  0  0  0
   -6.3788   24.0679    2.9648 C   0  0  0  0  0  0  0  0  0  0  0  0
   -5.9622   24.5813    4.1793 C   0  0  0  0  0  0  0  0  0  0  0  0
   -6.3880   24.0201    5.3705 C   0  0  0  0  0  0  0  0  0  0  0  0
   -7.2550   22.9136    5.3275 C   0  0  0  0  0  0  0  0  0  0  0  0
   -7.7205   22.2999    6.6212 C   0  0  0  0  0  0  0  0  0  0  0  0
   -5.0958   25.7645    3.9409 C   0  0  0  0  0  0  0  0  0  0  0  0
   -4.8505   25.5956    2.4380 C   0  0  0  0  0  0  0  0  0  0  0  0
   -5.8892   24.7484    1.8808 O   0  0  0  0  0  0  0  0  0  0  0  0
   -6.5469   28.6082    6.0412 C   0  0  0  0  0  0  0  0  0  0  0  0
   -6.0117   29.0122    7.3666 C   0  0  0  0  0  0  0  0  0  0  0  0
   -6.5526   28.7425    8.5403 N   0  0  0  0  0  0  0  0  0  0  0  0
   -5.7584   29.2894    9.5206 N   0  0  0  0  0  0  0  0  0  0  0  0
   -4.7474   29.8845    8.9315 C   0  0  0  0  0  0  0  0  0  0  0  0
   -3.6343   30.6404    9.5620 C   0  0  0  0  0  0  0  0  0  0  0  0
   -2.4431   30.7791    8.6059 C   0  0  0  0  0  0  0  0  0  0  0  0
   -2.9281   31.2279    7.2155 C   0  0  0  0  0  0  0  0  0  0  0  0
   -3.9005   30.2094    6.6142 C   0  0  0  0  0  0  0  0  0  0  0  0
   -4.8714   29.7380    7.5756 N   0  0  0  0  0  0  0  0  0  0  0  0
   -1.4332   31.7533    9.1779 C   0  0  0  0  0  0  0  0  0  0  0  0
   -0.2215   31.1802    9.3300 F   0  0  0  0  0  0  0  0  0  0  0  0
   -1.8334   32.1992   10.3888 F   0  0  0  0  0  0  0  0  0  0  0  0
   -1.2880   32.8287    8.3758 F   0  0  0  0  0  0  0  0  0  0  0  0
  5  6  1  0  0  0
  6  7  1  0  0  0
  7  8  2  0  0  0
  8  9  1  0  0  0
  9 10  2  0  0  0
 10 11  1  0  0  0
 11 12  1  0  0  0
  9 13  1  0  0  0
 13  1  1  0  0  0
  1  2  2  0  0  0
  1  3  1  0  0  0
  3 16  1  0  0  0
 16 17  1  0  0  0
 17 18  2  0  0  0
 18 19  1  0  0  0
 19 20  2  0  0  0
 20 21  1  0  0  0
 21 22  1  0  0  0
 22 26  1  0  0  0
 26 27  1  0  0  0
 26 28  1  0  0  0
 26 29  1  0  0  0
 22 23  1  0  0  0
 23 24  1  0  0  0
 24 25  1  0  0  0
 13 14  1  0  0  0
 14 15  1  0  0  0
 11  6  2  0  0  0
 25 17  1  0  0  0
 15  8  1  0  0  0
 25 20  1  0  0  0
  3  4  1  0  0  0
M  END
> <minimizedAffinity>
-10.46089

$$$$
OCNT-2309065


 28 31  0  0  0  0  0  0  0  0999 V2000
   -5.3838   25.6078    2.9070 C   0  0  0  0  0  0  0  0  0  0  0  0
   -5.4217   26.9220    2.9649 N   0  0  0  0  0  0  0  0  0  0  0  0
   -5.9344   27.1392    4.2177 C   0  0  0  0  0  0  0  0  0  0  0  0
   -6.2207   26.0304    4.9116 N   0  0  0  0  0  0  0  0  0  0  0  0
   -5.8500   25.0046    4.0410 O   0  0  0  0  0  0  0  0  0  0  0  0
   -4.9232   24.7029    1.8113 C   0  0  0  0  0  0  0  0  0  0  0  0
   -3.8401   23.7418    2.3078 C   0  0  0  0  0  0  0  0  0  0  0  0
   -6.7642   25.6727   -0.6998 C   0  0  0  0  0  0  0  0  0  0  0  0
   -6.8548   24.4037    0.0610 C   0  0  0  0  0  0  0  0  0  0  0  0
   -7.7797   23.4966   -0.2681 N   0  0  0  0  0  0  0  0  0  0  0  0
   -7.6124   22.4503    0.6133 O   0  0  0  0  0  0  0  0  0  0  0  0
   -6.5894   22.7267    1.4630 C   0  0  0  0  0  0  0  0  0  0  0  0
   -6.2994   21.6903    2.4741 C   0  0  0  0  0  0  0  0  0  0  0  0
   -6.0604   23.9679    1.1622 C   0  0  0  0  0  0  0  0  0  0  0  0
   -6.1650   28.5012    4.7581 C   0  0  0  0  0  0  0  0  0  0  0  0
   -6.8030   28.4618    6.1486 C   0  0  0  0  0  0  0  0  0  0  0  0
   -6.5255   29.7389    6.9367 C   0  0  0  0  0  0  0  0  0  0  0  0
   -5.2216   29.6459    7.5048 O   0  0  0  0  0  0  0  0  0  0  0  0
   -4.6946   30.7678    8.0989 C   0  0  0  0  0  0  0  0  0  0  0  0
   -5.4331   31.9205    8.3871 C   0  0  0  0  0  0  0  0  0  0  0  0
   -4.8202   33.0161    8.9926 C   0  0  0  0  0  0  0  0  0  0  0  0
   -3.4655   32.9715    9.3130 C   0  0  0  0  0  0  0  0  0  0  0  0
   -2.7002   31.8314    9.0314 C   0  0  0  0  0  0  0  0  0  0  0  0
   -1.3331   31.7916    9.3542 C   0  0  0  0  0  0  0  0  0  0  0  0
   -0.5634   30.6622    9.0767 C   0  0  0  0  0  0  0  0  0  0  0  0
   -1.1502   29.5575    8.4725 C   0  0  0  0  0  0  0  0  0  0  0  0
   -2.5077   29.5826    8.1464 C   0  0  0  0  0  0  0  0  0  0  0  0
   -3.3124   30.7121    8.4160 C   0  0  0  0  0  0  0  0  0  0  0  0
  8  9  1  0  0  0
  9 10  2  0  0  0
 10 11  1  0  0  0
 11 12  1  0  0  0
 12 13  1  0  0  0
 12 14  2  0  0  0
 14  6  1  0  0  0
  6  7  1  0  0  0
  6  1  1  0  0  0
  1  2  2  0  0  0
  2  3  1  0  0  0
  3 15  1  0  0  0
 15 16  1  0  0  0
 16 17  1  0  0  0
 17 18  1  0  0  0
 18 19  1  0  0  0
 19 20  2  0  0  0
 20 21  1  0  0  0
 21 22  2  0  0  0
 22 23  1  0  0  0
 23 24  2  0  0  0
 24 25  1  0  0  0
 25 26  2  0  0  0
 26 27  1  0  0  0
 27 28  2  0  0  0
  3  4  2  0  0  0
  4  5  1  0  0  0
 14  9  1  0  0  0
  5  1  1  0  0  0
 28 19  1  0  0  0
 28 23  1  0  0  0
M  END
> <minimizedAffinity>
-10.02396

$$$$
OCNT-2309084


 30 34  0  0  0  0  0  0  0  0999 V2000
   -5.5990   28.9798    6.7292 S   0  0  0  0  0  0  0  0  0  0  0  0
   -5.7484   29.9321    5.6537 O   0  0  0  0  0  0  0  0  0  0  0  0
   -6.1519   29.2182    8.0483 O   0  0  0  0  0  0  0  0  0  0  0  0
   -3.8649   28.6220    6.9161 C   0  0  0  0  0  0  0  0  0  0  0  0
   -3.3207   27.5245    6.1922 C   0  0  0  0  0  0  0  0  0  0  0  0
   -1.9499   27.2276    6.2457 C   0  0  0  0  0  0  0  0  0  0  0  0
   -1.1614   28.0397    7.0254 C   0  0  0  0  0  0  0  0  0  0  0  0
    0.2091   27.9950    7.2580 N   0  0  0  0  0  0  0  0  0  0  0  0
    0.5618   29.0224    8.1195 C   0  0  0  0  0  0  0  0  0  0  0  0
    1.6632   29.2998    8.5459 O   0  0  0  0  0  0  0  0  0  0  0  0
   -0.7026   29.7291    8.4193 C   0  0  0  0  0  0  0  0  0  0  0  0
   -1.6989   29.0866    7.7283 C   0  0  0  0  0  0  0  0  0  0  0  0
   -3.0443   29.4464    7.7410 C   0  0  0  0  0  0  0  0  0  0  0  0
   -3.3343   30.5691    8.5703 C   0  0  0  0  0  0  0  0  0  0  0  0
   -2.3125   31.2411    9.2855 C   0  0  0  0  0  0  0  0  0  0  0  0
   -0.9772   30.8227    9.2110 C   0  0  0  0  0  0  0  0  0  0  0  0
    0.8677   27.3322    6.8775 H   0  0  0  0  0  0  0  0  0  0  0  0
   -6.2273   27.5009    6.1962 N   0  0  0  0  0  0  0  0  0  0  0  0
   -7.0815   27.2099    6.6741 H   0  0  0  0  0  0  0  0  0  0  0  0
   -5.7372   25.9361    4.2463 C   0  0  0  0  0  0  0  0  0  0  0  0
   -6.0174   27.1690    4.7865 C   0  0  0  0  0  0  0  0  0  0  0  0
   -6.0516   28.0472    3.7325 N   0  0  0  0  0  0  0  0  0  0  0  0
   -5.8677   27.4523    2.5400 N   0  0  0  0  0  0  0  0  0  0  0  0
   -5.6722   26.1690    2.8592 C   0  0  0  0  0  0  0  0  0  0  0  0
   -6.2099   29.0516    3.7704 H   0  0  0  0  0  0  0  0  0  0  0  0
   -5.3984   25.0767    1.7886 C   0  0  0  0  0  0  0  0  0  0  0  0
   -6.0592   25.1863    0.4381 C   0  0  0  0  0  0  0  0  0  0  0  0
   -6.5062   24.1288    1.4037 C   0  0  0  0  0  0  0  0  0  0  0  0
   -5.5013   23.6932    5.5001 N   0  0  0  0  0  0  0  0  0  0  0  0
   -5.5853   24.7085    4.9449 C   0  0  0  0  0  0  0  0  0  0  0  0
 29 30  3  0  0  0
 30 20  1  0  0  0
 20 21  2  0  0  0
 21 18  1  0  0  0
 18  1  1  0  0  0
  1  2  2  0  0  0
  1  3  2  0  0  0
  1  4  1  0  0  0
  4  5  2  0  0  0
  5  6  1  0  0  0
  6  7  2  0  0  0
  7  8  1  0  0  0
  8  9  1  0  0  0
  9 10  2  0  0  0
  9 11  1  0  0  0
 11 12  2  0  0  0
 12 13  1  0  0  0
 13 14  2  0  0  0
 14 15  1  0  0  0
 15 16  2  0  0  0
 21 22  1  0  0  0
 22 23  1  0  0  0
 23 24  2  0  0  0
 24 26  1  0  0  0
 26 27  1  0  0  0
 27 28  1  0  0  0
 24 20  1  0  0  0
 28 26  1  0  0  0
 13  4  1  0  0  0
 12  7  1  0  0  0
 16 11  1  0  0  0
 18 19  1  0  0  0
  8 17  1  0  0  0
 22 25  1  0  0  0
M  END
> <minimizedAffinity>
-10.02064

$$$$
OCNT-2309101


 23 25  0  0  0  0  0  0  0  0999 V2000
   -3.3775   26.3621    4.4298 C   0  0  0  0  0  0  0  0  0  0  0  0
   -2.1281   26.2061    3.5389 C   0  0  0  0  0  0  0  0  0  0  0  0
   -0.9359   25.6970    4.3420 C   0  0  0  0  0  0  0  0  0  0  0  0
   -0.6359   26.5928    5.5520 C   0  0  0  0  0  0  0  0  0  0  0  0
   -1.8241   27.2750    6.0953 N   0  0  0  0  0  0  0  0  0  0  0  0
   -3.0214   26.4327    5.9266 C   0  0  0  0  0  0  0  0  0  0  0  0
   -4.1295   24.5989    2.9625 N   0  0  0  0  0  0  0  0  0  0  0  0
   -4.3847   25.2398    4.1637 C   0  0  0  0  0  0  0  0  0  0  0  0
   -5.2761   24.9794    4.9622 O   0  0  0  0  0  0  0  0  0  0  0  0
   -3.3588   24.9343    2.4053 H   0  0  0  0  0  0  0  0  0  0  0  0
   -7.2117   22.8362   -0.2992 C   0  0  0  0  0  0  0  0  0  0  0  0
   -6.3392   22.6157    0.8989 C   0  0  0  0  0  0  0  0  0  0  0  0
   -6.2432   21.3552    1.4727 C   0  0  0  0  0  0  0  0  0  0  0  0
   -5.4177   21.1930    2.5772 C   0  0  0  0  0  0  0  0  0  0  0  0
   -4.7156   22.2903    3.0690 C   0  0  0  0  0  0  0  0  0  0  0  0
   -4.8589   23.5232    2.4383 C   0  0  0  0  0  0  0  0  0  0  0  0
   -5.6585   23.6853    1.3716 N   0  0  0  0  0  0  0  0  0  0  0  0
   -1.6011   27.6484    7.5038 C   0  0  0  0  0  0  0  0  0  0  0  0
   -1.6411   29.1358    7.6691 C   0  0  0  0  0  0  0  0  0  0  0  0
   -2.2791   30.0492    6.8432 C   0  0  0  0  0  0  0  0  0  0  0  0
   -1.9974   31.6103    7.4877 S   0  0  0  0  0  0  0  0  0  0  0  0
   -1.0776   31.0250    8.7549 N   0  0  0  0  0  0  0  0  0  0  0  0
   -0.9618   29.7075    8.7410 N   0  0  0  0  0  0  0  0  0  0  0  0
 11 12  1  0  0  0
 12 13  2  0  0  0
 13 14  1  0  0  0
 14 15  2  0  0  0
 15 16  1  0  0  0
 16  7  1  0  0  0
  7  8  1  0  0  0
  8  9  2  0  0  0
  8  1  1  0  0  0
  1  2  1  0  0  0
  2  3  1  0  0  0
  3  4  1  0  0  0
  4  5  1  0  0  0
  5 18  1  0  0  0
 18 19  1  0  0  0
 19 20  2  0  0  0
 20 21  1  0  0  0
 21 22  1  0  0  0
 22 23  2  0  0  0
  5  6  1  0  0  0
 16 17  2  0  0  0
 17 12  1  0  0  0
  6  1  1  0  0  0
 23 19  1  0  0  0
  7 10  1  0  0  0
M  END
> <minimizedAffinity>
-8.37303

$$$$
OCNT-2309109


 25 27  0  0  0  0  0  0  0  0999 V2000
   -5.5599   28.4209    6.9129 N   0  0  0  0  0  0  0  0  0  0  0  0
   -5.0397   27.7183    7.4375 H   0  0  0  0  0  0  0  0  0  0  0  0
   -5.0962   28.4949    5.5379 C   0  0  0  0  0  0  0  0  0  0  0  0
   -5.9517   29.5178    4.7574 C   0  0  0  0  0  0  0  0  0  0  0  0
   -5.8738   29.1016    3.2841 C   0  0  0  0  0  0  0  0  0  0  0  0
   -5.7680   27.6135    3.4194 C   0  0  0  0  0  0  0  0  0  0  0  0
   -6.0088   26.6572    2.4462 C   0  0  0  0  0  0  0  0  0  0  0  0
   -5.8225   25.3189    2.7844 C   0  0  0  0  0  0  0  0  0  0  0  0
   -6.0604   24.3847    1.8510 F   0  0  0  0  0  0  0  0  0  0  0  0
   -5.3922   24.9494    4.0663 C   0  0  0  0  0  0  0  0  0  0  0  0
   -5.1628   23.2879    4.4621 Cl  0  0  0  0  0  0  0  0  0  0  0  0
   -5.1374   25.9219    5.0379 C   0  0  0  0  0  0  0  0  0  0  0  0
   -5.3342   27.2568    4.7074 C   0  0  0  0  0  0  0  0  0  0  0  0
   -5.5432   29.7154    7.6022 C   0  0  0  0  0  0  0  0  0  0  0  0
   -4.9064   29.6686    9.0141 C   0  0  0  0  0  0  0  0  0  0  0  0
   -4.9434   28.3143    9.4909 O   0  0  0  0  0  0  0  0  0  0  0  0
   -4.3668   28.2887   10.2747 H   0  0  0  0  0  0  0  0  0  0  0  0
   -2.4170   29.4498    8.5023 C   0  0  0  0  0  0  0  0  0  0  0  0
   -1.1154   29.9615    8.5650 C   0  0  0  0  0  0  0  0  0  0  0  0
   -0.8630   31.1896    9.1816 C   0  0  0  0  0  0  0  0  0  0  0  0
   -1.9061   31.9159    9.7451 C   0  0  0  0  0  0  0  0  0  0  0  0
   -3.2058   31.4182    9.6857 C   0  0  0  0  0  0  0  0  0  0  0  0
   -3.4810   30.1895    9.0556 C   0  0  0  0  0  0  0  0  0  0  0  0
   -1.7133   27.5204    7.2855 C   0  0  0  0  0  0  0  0  0  0  0  0
   -2.7516   28.2504    7.9273 O   0  0  0  0  0  0  0  0  0  0  0  0
 24 25  1  0  0  0
 25 18  1  0  0  0
 18 19  2  0  0  0
 19 20  1  0  0  0
 20 21  2  0  0  0
 21 22  1  0  0  0
 22 23  2  0  0  0
 23 15  1  0  0  0
 15 16  1  0  0  0
 15 14  1  0  0  0
 14  1  1  0  0  0
  1  3  1  0  0  0
  3  4  1  0  0  0
  4  5  1  0  0  0
  5  6  1  0  0  0
  6  7  1  0  0  0
  7  8  2  0  0  0
  8  9  1  0  0  0
  8 10  1  0  0  0
 10 11  1  0  0  0
 10 12  2  0  0  0
 12 13  1  0  0  0
 23 18  1  0  0  0
 13  3  1  0  0  0
 13  6  2  0  0  0
 16 17  1  0  0  0
  1  2  1  0  0  0
M  END
> <minimizedAffinity>
-9.10183

$$$$
OCNT-2309135


 21 23  0  0  0  0  0  0  0  0999 V2000
   -2.4065   28.8741    6.7711 O   0  0  0  0  0  0  0  0  0  0  0  0
   -3.6123   29.1087    6.6701 C   0  0  0  0  0  0  0  0  0  0  0  0
   -4.4257   28.2946    5.8692 N   0  0  0  0  0  0  0  0  0  0  0  0
   -3.8342   27.0819    5.3125 C   0  0  0  0  0  0  0  0  0  0  0  0
   -4.8982   26.0706    4.8978 C   0  0  0  0  0  0  0  0  0  0  0  0
   -5.8852   26.6397    3.8598 C   0  0  0  0  0  0  0  0  0  0  0  0
   -5.9425   28.1812    3.9223 C   0  0  0  0  0  0  0  0  0  0  0  0
   -5.7289   28.7031    5.3403 C   0  0  0  0  0  0  0  0  0  0  0  0
   -4.2068   30.2493    7.3518 C   0  0  0  0  0  0  0  0  0  0  0  0
   -4.0886   31.5807    6.9977 C   0  0  0  0  0  0  0  0  0  0  0  0
   -4.7474   32.4500    7.9144 C   0  0  0  0  0  0  0  0  0  0  0  0
   -5.3125   31.7579    8.9619 C   0  0  0  0  0  0  0  0  0  0  0  0
   -5.0318   30.0748    8.8446 S   0  0  0  0  0  0  0  0  0  0  0  0
   -5.5815   26.2005    2.4144 C   0  0  0  0  0  0  0  0  0  0  0  0
   -4.4926   25.1314    2.1975 C   0  0  0  0  0  0  0  0  0  0  0  0
   -4.8662   23.7539    1.8785 N   0  0  0  0  0  0  0  0  0  0  0  0
   -5.9659   23.6168    0.9133 C   0  0  0  0  0  0  0  0  0  0  0  0
   -6.1917   22.1422    0.5402 C   0  0  0  0  0  0  0  0  0  0  0  0
   -6.4480   21.3456    1.7055 O   0  0  0  0  0  0  0  0  0  0  0  0
   -5.3391   21.4340    2.6115 C   0  0  0  0  0  0  0  0  0  0  0  0
   -5.0874   22.8884    3.0452 C   0  0  0  0  0  0  0  0  0  0  0  0
  1  2  2  0  0  0
  2  9  1  0  0  0
  9 10  2  0  0  0
 10 11  1  0  0  0
 11 12  2  0  0  0
 12 13  1  0  0  0
  2  3  1  0  0  0
  3  4  1  0  0  0
  4  5  1  0  0  0
  5  6  1  0  0  0
  6 14  1  0  0  0
 14 15  1  0  0  0
 15 16  1  0  0  0
 16 17  1  0  0  0
 17 18  1  0  0  0
 18 19  1  0  0  0
 19 20  1  0  0  0
 20 21  1  0  0  0
  6  7  1  0  0  0
  7  8  1  0  0  0
 13  9  1  0  0  0
  8  3  1  0  0  0
 21 16  1  0  0  0
M  END
> <minimizedAffinity>
-7.56262

$$$$
OCNT-2309139


 27 30  0  0  0  0  0  0  0  0999 V2000
   -5.3576   30.6547    8.1557 C   0  0  0  0  0  0  0  0  0  0  0  0
   -6.2020   30.2961    8.9709 O   0  0  0  0  0  0  0  0  0  0  0  0
   -5.5657   30.5825    6.7953 N   0  0  0  0  0  0  0  0  0  0  0  0
   -4.7523   30.6521    6.2022 H   0  0  0  0  0  0  0  0  0  0  0  0
   -4.5048   33.5923    9.3669 C   0  0  0  0  0  0  0  0  0  0  0  0
   -3.6892   32.3928    9.0387 C   0  0  0  0  0  0  0  0  0  0  0  0
   -4.0317   31.1341    8.5467 C   0  0  0  0  0  0  0  0  0  0  0  0
   -2.8229   30.3566    8.5228 C   0  0  0  0  0  0  0  0  0  0  0  0
   -2.5161   29.0289    8.1537 C   0  0  0  0  0  0  0  0  0  0  0  0
   -1.1955   28.5734    8.2360 C   0  0  0  0  0  0  0  0  0  0  0  0
   -0.1812   29.4186    8.6769 C   0  0  0  0  0  0  0  0  0  0  0  0
   -0.4559   30.7377    9.0481 C   0  0  0  0  0  0  0  0  0  0  0  0
   -1.7833   31.1750    8.9591 C   0  0  0  0  0  0  0  0  0  0  0  0
   -2.3318   32.3969    9.2580 N   0  0  0  0  0  0  0  0  0  0  0  0
   -1.8029   33.1785    9.6198 H   0  0  0  0  0  0  0  0  0  0  0  0
   -6.7602   29.9860    6.2506 C   0  0  0  0  0  0  0  0  0  0  0  0
   -6.4307   28.8773    5.2943 C   0  0  0  0  0  0  0  0  0  0  0  0
   -6.1253   29.1270    3.9549 C   0  0  0  0  0  0  0  0  0  0  0  0
   -5.8078   28.0684    3.1021 C   0  0  0  0  0  0  0  0  0  0  0  0
   -5.7986   26.7752    3.6175 C   0  0  0  0  0  0  0  0  0  0  0  0
   -6.0837   26.5103    4.9177 N   0  0  0  0  0  0  0  0  0  0  0  0
   -6.3842   27.5563    5.7221 C   0  0  0  0  0  0  0  0  0  0  0  0
   -5.4826   25.6680    2.7835 N   0  0  0  0  0  0  0  0  0  0  0  0
   -4.7885   24.5177    3.0917 C   0  0  0  0  0  0  0  0  0  0  0  0
   -4.7610   23.7749    1.9339 C   0  0  0  0  0  0  0  0  0  0  0  0
   -5.4117   24.4225    0.9227 N   0  0  0  0  0  0  0  0  0  0  0  0
   -5.8331   25.5491    1.4564 C   0  0  0  0  0  0  0  0  0  0  0  0
  5  6  1  0  0  0
  6  7  2  0  0  0
  7  1  1  0  0  0
  1  2  2  0  0  0
  1  3  1  0  0  0
  3 16  1  0  0  0
 16 17  1  0  0  0
 17 18  2  0  0  0
 18 19  1  0  0  0
 19 20  2  0  0  0
 20 23  1  0  0  0
 23 24  1  0  0  0
 24 25  2  0  0  0
 25 26  1  0  0  0
 26 27  2  0  0  0
 20 21  1  0  0  0
 21 22  2  0  0  0
  7  8  1  0  0  0
  8  9  2  0  0  0
  9 10  1  0  0  0
 10 11  2  0  0  0
 11 12  1  0  0  0
 12 13  2  0  0  0
 13 14  1  0  0  0
 14  6  1  0  0  0
 22 17  1  0  0  0
 13  8  1  0  0  0
 27 23  1  0  0  0
  3  4  1  0  0  0
 14 15  1  0  0  0
M  END
> <minimizedAffinity>
-9.96116

$$$$
OCNT-2309149


 23 25  0  0  0  0  0  0  0  0999 V2000
   -5.4466   26.2012    3.8686 C   0  0  0  0  0  0  0  0  0  0  0  0
   -4.5203   25.5315    4.8961 C   0  0  0  0  0  0  0  0  0  0  0  0
   -3.3057   26.3978    5.2125 C   0  0  0  0  0  0  0  0  0  0  0  0
   -3.7388   27.6812    5.7491 N   0  0  0  0  0  0  0  0  0  0  0  0
   -5.0164   28.2347    5.3167 C   0  0  0  0  0  0  0  0  0  0  0  0
   -5.3557   27.7322    3.9196 C   0  0  0  0  0  0  0  0  0  0  0  0
   -2.8851   28.4702    6.4381 C   0  0  0  0  0  0  0  0  0  0  0  0
   -3.0847   29.6378    7.0160 N   0  0  0  0  0  0  0  0  0  0  0  0
   -1.8889   30.0193    7.5866 N   0  0  0  0  0  0  0  0  0  0  0  0
   -1.0341   29.0530    7.3196 C   0  0  0  0  0  0  0  0  0  0  0  0
   -1.5955   28.0362    6.5928 O   0  0  0  0  0  0  0  0  0  0  0  0
    0.3921   28.9282    7.6868 C   0  0  0  0  0  0  0  0  0  0  0  0
    1.1972   29.6170    6.8295 F   0  0  0  0  0  0  0  0  0  0  0  0
    0.6413   29.4372    8.9264 F   0  0  0  0  0  0  0  0  0  0  0  0
   -5.0328   25.7398    2.5741 O   0  0  0  0  0  0  0  0  0  0  0  0
   -8.2532   22.7308   -0.7035 F   0  0  0  0  0  0  0  0  0  0  0  0
   -7.4710   23.4345    0.1244 C   0  0  0  0  0  0  0  0  0  0  0  0
   -6.9709   24.6634   -0.2853 C   0  0  0  0  0  0  0  0  0  0  0  0
   -6.1556   25.3951    0.5806 C   0  0  0  0  0  0  0  0  0  0  0  0
   -5.8372   24.9029    1.8539 C   0  0  0  0  0  0  0  0  0  0  0  0
   -6.3580   23.6631    2.2386 C   0  0  0  0  0  0  0  0  0  0  0  0
   -6.1046   23.1326    3.4427 F   0  0  0  0  0  0  0  0  0  0  0  0
   -7.1723   22.9271    1.3801 C   0  0  0  0  0  0  0  0  0  0  0  0
 16 17  1  0  0  0
 17 18  1  0  0  0
 18 19  2  0  0  0
 19 20  1  0  0  0
 20 15  1  0  0  0
 15  1  1  0  0  0
  1  2  1  0  0  0
  2  3  1  0  0  0
  3  4  1  0  0  0
  4  7  1  0  0  0
  7  8  2  0  0  0
  8  9  1  0  0  0
  9 10  2  0  0  0
 10 12  1  0  0  0
 12 13  1  0  0  0
 12 14  1  0  0  0
 10 11  1  0  0  0
  4  5  1  0  0  0
  5  6  1  0  0  0
 20 21  2  0  0  0
 21 22  1  0  0  0
 21 23  1  0  0  0
 23 17  2  0  0  0
  6  1  1  0  0  0
 11  7  1  0  0  0
M  END
> <minimizedAffinity>
-8.84028

$$$$
OCNT-2309157


 28 31  0  0  0  0  0  0  0  0999 V2000
   -4.9348   27.1663    5.5433 N   0  0  0  0  0  0  0  0  0  0  0  0
   -5.8631   28.0180    6.0966 C   0  0  0  0  0  0  0  0  0  0  0  0
   -7.0740   27.8163    6.1468 O   0  0  0  0  0  0  0  0  0  0  0  0
   -5.3071   29.1823    6.6546 N   0  0  0  0  0  0  0  0  0  0  0  0
   -6.2347   30.0956    7.3211 C   0  0  0  0  0  0  0  0  0  0  0  0
   -5.5307   31.0145    8.3114 C   0  0  0  0  0  0  0  0  0  0  0  0
   -4.3943   31.8119    7.6746 C   0  0  0  0  0  0  0  0  0  0  0  0
   -3.9715   31.2664    6.3118 C   0  0  0  0  0  0  0  0  0  0  0  0
   -4.0064   29.7322    6.2363 C   0  0  0  0  0  0  0  0  0  0  0  0
   -3.9968   27.2133    5.9020 H   0  0  0  0  0  0  0  0  0  0  0  0
   -5.4677   22.4272    4.2181 C   0  0  0  0  0  0  0  0  0  0  0  0
   -5.4182   23.9083    4.2049 C   0  0  0  0  0  0  0  0  0  0  0  0
   -5.0003   24.7351    5.2307 C   0  0  0  0  0  0  0  0  0  0  0  0
   -5.2255   26.0492    4.7895 C   0  0  0  0  0  0  0  0  0  0  0  0
   -5.7144   26.0533    3.5585 N   0  0  0  0  0  0  0  0  0  0  0  0
   -5.8232   24.7549    3.1733 N   0  0  0  0  0  0  0  0  0  0  0  0
   -6.3024   24.4795    1.8506 C   0  0  0  0  0  0  0  0  0  0  0  0
   -6.0755   25.3253    0.7595 C   0  0  0  0  0  0  0  0  0  0  0  0
   -6.5712   24.9977   -0.5094 C   0  0  0  0  0  0  0  0  0  0  0  0
   -7.3019   23.8284   -0.7029 C   0  0  0  0  0  0  0  0  0  0  0  0
   -7.5467   22.9835    0.3737 C   0  0  0  0  0  0  0  0  0  0  0  0
   -7.0548   23.3071    1.6409 C   0  0  0  0  0  0  0  0  0  0  0  0
   -2.8951   29.0960    7.0249 C   0  0  0  0  0  0  0  0  0  0  0  0
   -2.9266   28.4497    8.2460 C   0  0  0  0  0  0  0  0  0  0  0  0
   -1.6518   28.0445    8.5088 N   0  0  0  0  0  0  0  0  0  0  0  0
   -0.7868   28.3553    7.5312 N   0  0  0  0  0  0  0  0  0  0  0  0
   -1.5345   29.0082    6.6407 C   0  0  0  0  0  0  0  0  0  0  0  0
   -1.3041   27.5465    9.3224 H   0  0  0  0  0  0  0  0  0  0  0  0
 11 12  1  0  0  0
 12 13  2  0  0  0
 13 14  1  0  0  0
 14  1  1  0  0  0
  1  2  1  0  0  0
  2  3  2  0  0  0
  2  4  1  0  0  0
  4  5  1  0  0  0
  5  6  1  0  0  0
  6  7  1  0  0  0
  7  8  1  0  0  0
  8  9  1  0  0  0
  9 23  1  0  0  0
 23 24  2  0  0  0
 24 25  1  0  0  0
 25 26  1  0  0  0
 26 27  2  0  0  0
 14 15  2  0  0  0
 15 16  1  0  0  0
 16 17  1  0  0  0
 17 18  2  0  0  0
 18 19  1  0  0  0
 19 20  2  0  0  0
 20 21  1  0  0  0
 21 22  2  0  0  0
 16 12  1  0  0  0
 22 17  1  0  0  0
  9  4  1  0  0  0
 27 23  1  0  0  0
  1 10  1  0  0  0
 25 28  1  0  0  0
M  END
> <minimizedAffinity>
-9.89941

$$$$
OCNT-2309162


 23 24  0  0  0  0  0  0  0  0999 V2000
   -4.0215   30.9292    8.3955 N   0  0  0  0  0  0  0  0  0  0  0  0
   -5.1009   31.5548    9.1736 C   0  0  0  0  0  0  0  0  0  0  0  0
   -6.4033   30.9964    8.6041 C   0  0  0  0  0  0  0  0  0  0  0  0
   -5.9852   30.3408    7.2904 C   0  0  0  0  0  0  0  0  0  0  0  0
   -4.5978   29.8133    7.6411 C   0  0  0  0  0  0  0  0  0  0  0  0
   -2.1766   31.6790   10.0153 C   0  0  0  0  0  0  0  0  0  0  0  0
   -2.7995   30.5743    9.1560 C   0  0  0  0  0  0  0  0  0  0  0  0
   -1.7471   29.9876    8.1857 C   0  0  0  0  0  0  0  0  0  0  0  0
   -1.1835   30.6336    7.3081 O   0  0  0  0  0  0  0  0  0  0  0  0
   -1.4484   28.6575    8.4408 N   0  0  0  0  0  0  0  0  0  0  0  0
   -2.1694   28.1771    8.9733 H   0  0  0  0  0  0  0  0  0  0  0  0
   -0.6650   27.8928    7.4728 C   0  0  0  0  0  0  0  0  0  0  0  0
   -1.4877   26.9708    6.5665 C   0  0  0  0  0  0  0  0  0  0  0  0
   -2.3821   27.6898    5.8406 F   0  0  0  0  0  0  0  0  0  0  0  0
   -0.7238   26.2781    5.6949 F   0  0  0  0  0  0  0  0  0  0  0  0
   -2.1880   26.0748    7.3028 F   0  0  0  0  0  0  0  0  0  0  0  0
   -6.9202   29.2308    6.8051 C   0  0  0  0  0  0  0  0  0  0  0  0
   -6.4986   28.6301    5.4841 C   0  0  0  0  0  0  0  0  0  0  0  0
   -6.2758   27.2502    5.3702 C   0  0  0  0  0  0  0  0  0  0  0  0
   -5.8874   26.6956    4.1502 C   0  0  0  0  0  0  0  0  0  0  0  0
   -5.7191   27.5114    3.0305 C   0  0  0  0  0  0  0  0  0  0  0  0
   -5.9428   28.8842    3.1329 C   0  0  0  0  0  0  0  0  0  0  0  0
   -6.3293   29.4420    4.3519 C   0  0  0  0  0  0  0  0  0  0  0  0
  6  7  1  0  0  0
  7  8  1  0  0  0
  8  9  2  0  0  0
  8 10  1  0  0  0
 10 12  1  0  0  0
 12 13  1  0  0  0
 13 14  1  0  0  0
 13 15  1  0  0  0
 13 16  1  0  0  0
  7  1  1  0  0  0
  1  2  1  0  0  0
  2  3  1  0  0  0
  3  4  1  0  0  0
  4 17  1  0  0  0
 17 18  1  0  0  0
 18 19  2  0  0  0
 19 20  1  0  0  0
 20 21  2  0  0  0
 21 22  1  0  0  0
 22 23  2  0  0  0
  4  5  1  0  0  0
  5  1  1  0  0  0
 23 18  1  0  0  0
 10 11  1  0  0  0
M  END
> <minimizedAffinity>
-8.64669

$$$$
OCNT-2309174


 24 26  0  0  0  0  0  0  0  0999 V2000
   -5.7268   22.8244    2.9094 C   0  0  0  0  0  0  0  0  0  0  0  0
   -4.5337   22.6132    3.1029 O   0  0  0  0  0  0  0  0  0  0  0  0
   -6.7494   22.3037    3.7072 N   0  0  0  0  0  0  0  0  0  0  0  0
   -6.3971   21.4394    4.8283 C   0  0  0  0  0  0  0  0  0  0  0  0
   -7.0597   21.9337    6.1110 C   0  0  0  0  0  0  0  0  0  0  0  0
   -8.5794   22.1780    5.9634 C   0  0  0  0  0  0  0  0  0  0  0  0
   -9.0629   21.8919    4.5298 C   0  0  0  0  0  0  0  0  0  0  0  0
   -8.1739   22.5374    3.4694 C   0  0  0  0  0  0  0  0  0  0  0  0
   -5.9982   25.0580    1.6776 C   0  0  0  0  0  0  0  0  0  0  0  0
   -6.3758   25.6483    0.4476 C   0  0  0  0  0  0  0  0  0  0  0  0
   -6.8332   24.8966   -0.6426 C   0  0  0  0  0  0  0  0  0  0  0  0
   -6.9121   23.5161   -0.5560 C   0  0  0  0  0  0  0  0  0  0  0  0
   -6.5393   22.8916    0.6267 C   0  0  0  0  0  0  0  0  0  0  0  0
   -6.1074   23.6462    1.7374 C   0  0  0  0  0  0  0  0  0  0  0  0
   -5.8383   27.4495    2.6503 C   0  0  0  0  0  0  0  0  0  0  0  0
   -5.4453   25.9541    2.8148 C   0  0  0  0  0  0  0  0  0  0  0  0
   -5.9553   25.5640    4.2186 C   0  0  0  0  0  0  0  0  0  0  0  0
   -3.9044   25.8942    2.7953 C   0  0  0  0  0  0  0  0  0  0  0  0
   -8.9228   23.6027    6.4424 C   0  0  0  0  0  0  0  0  0  0  0  0
   -9.8181   23.6494    7.5774 N   0  0  0  0  0  0  0  0  0  0  0  0
  -10.9711   24.3635    7.7080 C   0  0  0  0  0  0  0  0  0  0  0  0
  -11.4050   24.0498    8.9732 C   0  0  0  0  0  0  0  0  0  0  0  0
  -10.5251   23.1825    9.5554 N   0  0  0  0  0  0  0  0  0  0  0  0
   -9.5474   22.9477    8.6900 N   0  0  0  0  0  0  0  0  0  0  0  0
 15 16  1  0  0  0
 16 17  1  0  0  0
 16 18  1  0  0  0
 16  9  1  0  0  0
  9 10  2  0  0  0
 10 11  1  0  0  0
 11 12  2  0  0  0
 12 13  1  0  0  0
 13 14  2  0  0  0
 14  1  1  0  0  0
  1  2  2  0  0  0
  1  3  1  0  0  0
  3  4  1  0  0  0
  4  5  1  0  0  0
  5  6  1  0  0  0
  6 19  1  0  0  0
 19 20  1  0  0  0
 20 21  1  0  0  0
 21 22  2  0  0  0
 22 23  1  0  0  0
 23 24  2  0  0  0
  6  7  1  0  0  0
  7  8  1  0  0  0
 14  9  1  0  0  0
  8  3  1  0  0  0
 24 20  1  0  0  0
M  END
> <minimizedAffinity>
-8.27470

$$$$
OCNT-2309179


 26 28  0  0  0  0  0  0  0  0999 V2000
   -6.1466   30.8296    6.5811 N   0  0  0  0  0  0  0  0  0  0  0  0
   -6.6170   31.6105    7.0290 H   0  0  0  0  0  0  0  0  0  0  0  0
   -2.2472   30.4620    7.9843 C   0  0  0  0  0  0  0  0  0  0  0  0
   -2.5054   31.2719    6.8854 C   0  0  0  0  0  0  0  0  0  0  0  0
   -3.8184   31.3884    6.4296 C   0  0  0  0  0  0  0  0  0  0  0  0
   -4.8455   30.7157    7.0943 C   0  0  0  0  0  0  0  0  0  0  0  0
   -4.6004   29.9374    8.1701 N   0  0  0  0  0  0  0  0  0  0  0  0
   -3.3184   29.8412    8.6040 C   0  0  0  0  0  0  0  0  0  0  0  0
    1.2164   29.1076    8.7301 C   0  0  0  0  0  0  0  0  0  0  0  0
   -0.0736   29.2843    8.0842 N   0  0  0  0  0  0  0  0  0  0  0  0
   -0.2618   28.5583    6.8339 C   0  0  0  0  0  0  0  0  0  0  0  0
   -0.8797   30.3364    8.5162 C   0  0  0  0  0  0  0  0  0  0  0  0
   -0.5218   31.1718    9.3434 O   0  0  0  0  0  0  0  0  0  0  0  0
   -6.9336   29.6075    6.6720 C   0  0  0  0  0  0  0  0  0  0  0  0
   -6.5172   28.6791    5.5531 C   0  0  0  0  0  0  0  0  0  0  0  0
   -6.2314   29.1691    4.2747 C   0  0  0  0  0  0  0  0  0  0  0  0
   -5.8368   28.3018    3.2466 C   0  0  0  0  0  0  0  0  0  0  0  0
   -5.7153   26.9204    3.4774 C   0  0  0  0  0  0  0  0  0  0  0  0
   -5.9974   26.4407    4.7620 C   0  0  0  0  0  0  0  0  0  0  0  0
   -5.9031   25.1426    5.0777 F   0  0  0  0  0  0  0  0  0  0  0  0
   -6.3910   27.3050    5.7852 C   0  0  0  0  0  0  0  0  0  0  0  0
   -5.3138   26.0480    2.4225 N   0  0  0  0  0  0  0  0  0  0  0  0
   -4.1014   25.4137    2.2492 C   0  0  0  0  0  0  0  0  0  0  0  0
   -4.2019   24.6842    1.0887 C   0  0  0  0  0  0  0  0  0  0  0  0
   -5.4331   24.8385    0.5274 N   0  0  0  0  0  0  0  0  0  0  0  0
   -6.0739   25.6522    1.3375 C   0  0  0  0  0  0  0  0  0  0  0  0
  9 10  1  0  0  0
 10 11  1  0  0  0
 10 12  1  0  0  0
 12 13  2  0  0  0
 12  3  1  0  0  0
  3  4  2  0  0  0
  4  5  1  0  0  0
  5  6  2  0  0  0
  6  1  1  0  0  0
  1 14  1  0  0  0
 14 15  1  0  0  0
 15 16  1  0  0  0
 16 17  2  0  0  0
 17 18  1  0  0  0
 18 22  1  0  0  0
 22 23  1  0  0  0
 23 24  2  0  0  0
 24 25  1  0  0  0
 25 26  2  0  0  0
 18 19  2  0  0  0
 19 20  1  0  0  0
 19 21  1  0  0  0
  6  7  1  0  0  0
  7  8  2  0  0  0
  8  3  1  0  0  0
 21 15  2  0  0  0
 26 22  1  0  0  0
  1  2  1  0  0  0
M  END
> <minimizedAffinity>
-8.86537

$$$$
OCNT-2309181


 25 27  0  0  0  0  0  0  0  0999 V2000
   -4.9981   28.0453    4.8445 C   0  0  0  0  0  0  0  0  0  0  0  0
   -6.0814   28.4510    3.8521 C   0  0  0  0  0  0  0  0  0  0  0  0
   -5.8034   27.5228    2.6806 C   0  0  0  0  0  0  0  0  0  0  0  0
   -5.5178   26.2416    3.3338 N   0  0  0  0  0  0  0  0  0  0  0  0
   -4.7517   26.5501    4.5543 C   0  0  0  0  0  0  0  0  0  0  0  0
   -5.2564   28.4179    6.2449 N   0  0  0  0  0  0  0  0  0  0  0  0
   -4.1914   28.8077    7.0704 C   0  0  0  0  0  0  0  0  0  0  0  0
   -3.0271   28.8007    6.6709 O   0  0  0  0  0  0  0  0  0  0  0  0
   -7.2728   29.8365    6.4525 C   0  0  0  0  0  0  0  0  0  0  0  0
   -6.6627   28.4581    6.6575 C   0  0  0  0  0  0  0  0  0  0  0  0
   -4.5426   29.2193    8.5018 C   0  0  0  0  0  0  0  0  0  0  0  0
   -4.1941   30.6301    8.8431 C   0  0  0  0  0  0  0  0  0  0  0  0
   -4.9460   31.7697    8.6324 C   0  0  0  0  0  0  0  0  0  0  0  0
   -4.2176   32.8087    9.1341 N   0  0  0  0  0  0  0  0  0  0  0  0
   -4.5775   34.2051    9.1311 C   0  0  0  0  0  0  0  0  0  0  0  0
   -3.0556   32.4276    9.6899 N   0  0  0  0  0  0  0  0  0  0  0  0
   -3.0282   31.1079    9.4888 C   0  0  0  0  0  0  0  0  0  0  0  0
   -4.8961   25.2361    2.4559 C   0  0  0  0  0  0  0  0  0  0  0  0
   -4.2745   24.0801    3.2595 C   0  0  0  0  0  0  0  0  0  0  0  0
   -5.8848   24.6452    1.4535 C   0  0  0  0  0  0  0  0  0  0  0  0
   -6.5763   23.4617    1.7568 C   0  0  0  0  0  0  0  0  0  0  0  0
   -7.4912   22.9211    0.8506 C   0  0  0  0  0  0  0  0  0  0  0  0
   -7.7267   23.5554   -0.3678 C   0  0  0  0  0  0  0  0  0  0  0  0
   -7.0477   24.7303   -0.6833 C   0  0  0  0  0  0  0  0  0  0  0  0
   -6.1341   25.2730    0.2214 C   0  0  0  0  0  0  0  0  0  0  0  0
  9 10  1  0  0  0
 10  6  1  0  0  0
  6  7  1  0  0  0
  7  8  2  0  0  0
  7 11  1  0  0  0
 11 12  1  0  0  0
 12 13  2  0  0  0
 13 14  1  0  0  0
 14 15  1  0  0  0
 14 16  1  0  0  0
 16 17  2  0  0  0
  6  1  1  0  0  0
  1  2  1  0  0  0
  2  3  1  0  0  0
  3  4  1  0  0  0
  4 18  1  0  0  0
 18 19  1  0  0  0
 18 20  1  0  0  0
 20 21  2  0  0  0
 21 22  1  0  0  0
 22 23  2  0  0  0
 23 24  1  0  0  0
 24 25  2  0  0  0
  4  5  1  0  0  0
 17 12  1  0  0  0
  5  1  1  0  0  0
 25 20  1  0  0  0
M  END
> <minimizedAffinity>
-9.00078

$$$$
OCNT-2309187


 26 28  0  0  0  0  0  0  0  0999 V2000
   -1.5500   26.0414    4.2322 O   0  0  0  0  0  0  0  0  0  0  0  0
   -1.6657   26.4095    5.3981 C   0  0  0  0  0  0  0  0  0  0  0  0
   -2.8483   26.3450    6.1040 N   0  0  0  0  0  0  0  0  0  0  0  0
   -2.7558   26.2723    7.1186 H   0  0  0  0  0  0  0  0  0  0  0  0
   -0.4768   26.8761    6.2352 C   0  0  0  0  0  0  0  0  0  0  0  0
   -0.8808   28.0106    7.0441 N   0  0  0  0  0  0  0  0  0  0  0  0
   -0.2469   29.2316    6.8988 C   0  0  0  0  0  0  0  0  0  0  0  0
    0.7028   29.3473    6.1230 O   0  0  0  0  0  0  0  0  0  0  0  0
   -1.8172   27.9936    7.4233 H   0  0  0  0  0  0  0  0  0  0  0  0
   -0.8184   30.3221    7.6771 C   0  0  0  0  0  0  0  0  0  0  0  0
   -0.6357   30.6639    9.0069 C   0  0  0  0  0  0  0  0  0  0  0  0
   -1.3898   31.8136    9.3877 C   0  0  0  0  0  0  0  0  0  0  0  0
   -2.1206   32.3203    8.3384 C   0  0  0  0  0  0  0  0  0  0  0  0
   -1.8933   31.4185    6.9057 S   0  0  0  0  0  0  0  0  0  0  0  0
   -4.0347   25.7959    5.4985 C   0  0  0  0  0  0  0  0  0  0  0  0
   -4.8482   26.8507    4.7852 C   0  0  0  0  0  0  0  0  0  0  0  0
   -5.0723   28.0488    5.5008 C   0  0  0  0  0  0  0  0  0  0  0  0
   -5.7275   29.1368    4.9258 C   0  0  0  0  0  0  0  0  0  0  0  0
   -6.1746   29.0564    3.6160 C   0  0  0  0  0  0  0  0  0  0  0  0
   -5.9808   27.8828    2.8875 C   0  0  0  0  0  0  0  0  0  0  0  0
   -5.3398   26.7635    3.4604 C   0  0  0  0  0  0  0  0  0  0  0  0
   -5.2251   25.5953    2.6464 N   0  0  0  0  0  0  0  0  0  0  0  0
   -4.1994   25.3149    1.7627 C   0  0  0  0  0  0  0  0  0  0  0  0
   -4.4947   24.0966    1.2007 C   0  0  0  0  0  0  0  0  0  0  0  0
   -5.6820   23.6229    1.6737 N   0  0  0  0  0  0  0  0  0  0  0  0
   -6.1073   24.5458    2.5107 C   0  0  0  0  0  0  0  0  0  0  0  0
  1  2  2  0  0  0
  2  5  1  0  0  0
  5  6  1  0  0  0
  6  7  1  0  0  0
  7  8  2  0  0  0
  7 10  1  0  0  0
 10 11  2  0  0  0
 11 12  1  0  0  0
 12 13  2  0  0  0
 13 14  1  0  0  0
  2  3  1  0  0  0
  3 15  1  0  0  0
 15 16  1  0  0  0
 16 17  2  0  0  0
 17 18  1  0  0  0
 18 19  2  0  0  0
 19 20  1  0  0  0
 20 21  2  0  0  0
 21 22  1  0  0  0
 22 23  1  0  0  0
 23 24  2  0  0  0
 24 25  1  0  0  0
 25 26  2  0  0  0
 14 10  1  0  0  0
 21 16  1  0  0  0
 26 22  1  0  0  0
  6  9  1  0  0  0
  3  4  1  0  0  0
M  END
> <minimizedAffinity>
-8.26197

$$$$
OCNT-2309193


 25 26  0  0  0  0  0  0  0  0999 V2000
   -4.2361   30.6125    7.6364 C   0  0  0  0  0  0  0  0  0  0  0  0
   -5.4722   31.3702    8.1837 C   0  0  0  0  0  0  0  0  0  0  0  0
   -6.3626   30.2697    8.7354 C   0  0  0  0  0  0  0  0  0  0  0  0
   -6.2142   29.1784    7.6907 C   0  0  0  0  0  0  0  0  0  0  0  0
   -4.8657   29.3385    7.1561 N   0  0  0  0  0  0  0  0  0  0  0  0
   -4.1880   28.3983    6.4135 C   0  0  0  0  0  0  0  0  0  0  0  0
   -3.0080   28.5260    6.0979 O   0  0  0  0  0  0  0  0  0  0  0  0
   -4.9275   27.3110    6.0418 N   0  0  0  0  0  0  0  0  0  0  0  0
   -5.9304   27.4110    6.0437 H   0  0  0  0  0  0  0  0  0  0  0  0
   -3.6439   31.4320    6.4522 C   0  0  0  0  0  0  0  0  0  0  0  0
   -4.3648   31.2962    5.2334 O   0  0  0  0  0  0  0  0  0  0  0  0
   -5.3092   31.4682    5.4513 H   0  0  0  0  0  0  0  0  0  0  0  0
   -3.1967   30.2540    8.7454 C   0  0  0  0  0  0  0  0  0  0  0  0
   -0.6414   30.4742    9.0062 C   0  0  0  0  0  0  0  0  0  0  0  0
   -1.9898   31.1877    8.9859 C   0  0  0  0  0  0  0  0  0  0  0  0
   -2.1862   31.9302   10.3149 C   0  0  0  0  0  0  0  0  0  0  0  0
   -4.3986   26.2668    5.1765 C   0  0  0  0  0  0  0  0  0  0  0  0
   -5.0291   26.2405    3.7502 C   0  0  0  0  0  0  0  0  0  0  0  0
   -3.8863   26.2749    2.7098 C   0  0  0  0  0  0  0  0  0  0  0  0
   -5.8709   27.5187    3.5326 C   0  0  0  0  0  0  0  0  0  0  0  0
   -5.8831   24.9752    3.5399 C   0  0  0  0  0  0  0  0  0  0  0  0
   -6.1714   24.3002    2.3638 C   0  0  0  0  0  0  0  0  0  0  0  0
   -7.0098   23.1652    2.5607 C   0  0  0  0  0  0  0  0  0  0  0  0
   -7.3427   22.9953    3.8829 C   0  0  0  0  0  0  0  0  0  0  0  0
   -6.6502   24.1961    4.8761 S   0  0  0  0  0  0  0  0  0  0  0  0
 14 15  1  0  0  0
 15 16  1  0  0  0
 15 13  1  0  0  0
 13  1  1  0  0  0
  1 10  1  0  0  0
 10 11  1  0  0  0
  1  2  1  0  0  0
  2  3  1  0  0  0
  3  4  1  0  0  0
  4  5  1  0  0  0
  5  6  1  0  0  0
  6  7  2  0  0  0
  6  8  1  0  0  0
  8 17  1  0  0  0
 17 18  1  0  0  0
 18 19  1  0  0  0
 18 20  1  0  0  0
 18 21  1  0  0  0
 21 22  2  0  0  0
 22 23  1  0  0  0
 23 24  2  0  0  0
 24 25  1  0  0  0
  5  1  1  0  0  0
 25 21  1  0  0  0
 11 12  1  0  0  0
  8  9  1  0  0  0
M  END
> <minimizedAffinity>
-8.45350

$$$$
OCNT-2309194


 29 32  0  0  0  0  0  0  0  0999 V2000
   -5.7305   28.0110    6.2461 C   0  0  0  0  0  0  0  0  0  0  0  0
   -6.7363   28.2565    6.9052 O   0  0  0  0  0  0  0  0  0  0  0  0
   -4.4571   28.1556    6.7634 N   0  0  0  0  0  0  0  0  0  0  0  0
   -3.6972   28.2345    6.1036 H   0  0  0  0  0  0  0  0  0  0  0  0
   -5.4320   23.8860    4.0450 C   0  0  0  0  0  0  0  0  0  0  0  0
   -5.5826   24.0449    2.6623 C   0  0  0  0  0  0  0  0  0  0  0  0
   -5.7795   25.3031    2.0828 C   0  0  0  0  0  0  0  0  0  0  0  0
   -5.8190   26.3843    2.9566 C   0  0  0  0  0  0  0  0  0  0  0  0
   -5.9917   27.6809    2.5946 O   0  0  0  0  0  0  0  0  0  0  0  0
   -5.9577   28.4307    3.7324 C   0  0  0  0  0  0  0  0  0  0  0  0
   -6.0577   29.8898    3.5172 C   0  0  0  0  0  0  0  0  0  0  0  0
   -5.8030   27.6180    4.8473 C   0  0  0  0  0  0  0  0  0  0  0  0
   -5.6813   26.2835    4.3331 C   0  0  0  0  0  0  0  0  0  0  0  0
   -5.4826   25.0017    4.8929 C   0  0  0  0  0  0  0  0  0  0  0  0
   -5.2760   21.5921    3.4333 C   0  0  0  0  0  0  0  0  0  0  0  0
   -5.2438   22.5898    4.4469 O   0  0  0  0  0  0  0  0  0  0  0  0
   -4.2849   28.7484    8.0807 C   0  0  0  0  0  0  0  0  0  0  0  0
   -3.6994   30.1954    8.0826 C   0  0  0  0  0  0  0  0  0  0  0  0
   -4.0157   30.8528    9.4818 C   0  0  0  0  0  0  0  0  0  0  0  0
   -4.3074   32.2809    9.1303 C   0  0  0  0  0  0  0  0  0  0  0  0
   -4.3452   33.3758    9.9774 C   0  0  0  0  0  0  0  0  0  0  0  0
   -4.6730   34.6207    9.4364 C   0  0  0  0  0  0  0  0  0  0  0  0
   -4.9680   34.7510    8.0701 C   0  0  0  0  0  0  0  0  0  0  0  0
   -4.9393   33.6381    7.2271 C   0  0  0  0  0  0  0  0  0  0  0  0
   -4.6001   32.4110    7.7720 C   0  0  0  0  0  0  0  0  0  0  0  0
   -4.5503   31.0796    7.0925 C   0  0  0  0  0  0  0  0  0  0  0  0
   -2.2116   30.2759    7.8953 N   0  0  0  0  0  0  0  0  0  0  0  0
   -1.7307   30.7024    6.5903 C   0  0  0  0  0  0  0  0  0  0  0  0
   -1.4700   29.1054    8.3631 C   0  0  0  0  0  0  0  0  0  0  0  0
 15 16  1  0  0  0
 16  5  1  0  0  0
  5  6  2  0  0  0
  6  7  1  0  0  0
  7  8  2  0  0  0
  8  9  1  0  0  0
  9 10  1  0  0  0
 10 11  1  0  0  0
 10 12  2  0  0  0
 12  1  1  0  0  0
  1  2  2  0  0  0
  1  3  1  0  0  0
  3 17  1  0  0  0
 17 18  1  0  0  0
 18 27  1  0  0  0
 27 28  1  0  0  0
 27 29  1  0  0  0
 18 19  1  0  0  0
 19 20  1  0  0  0
 20 21  2  0  0  0
 21 22  1  0  0  0
 22 23  2  0  0  0
 23 24  1  0  0  0
 24 25  2  0  0  0
 25 26  1  0  0  0
 12 13  1  0  0  0
 13 14  2  0  0  0
 14  5  1  0  0  0
 13  8  1  0  0  0
 26 18  1  0  0  0
 25 20  1  0  0  0
  3  4  1  0  0  0
M  END
> <minimizedAffinity>
-9.68874

$$$$
OCNT-2309206


 31 32  0  0  0  0  0  0  0  0999 V2000
   -4.0616   26.5517    4.9352 C   0  0  0  0  0  0  0  0  0  0  0  0
   -7.1304   28.2656    6.3748 C   0  0  0  0  0  0  0  0  0  0  0  0
   -6.0333   27.3666    6.1140 N   0  0  0  0  0  0  0  0  0  0  0  0
   -5.2162   27.5450    5.0164 C   0  0  0  0  0  0  0  0  0  0  0  0
   -5.4261   28.3998    4.1591 O   0  0  0  0  0  0  0  0  0  0  0  0
   -5.7063   26.7876    6.8770 H   0  0  0  0  0  0  0  0  0  0  0  0
   -2.9274   26.9649    5.8852 C   0  0  0  0  0  0  0  0  0  0  0  0
   -2.7199   28.4029    5.9444 N   0  0  0  0  0  0  0  0  0  0  0  0
   -3.2219   29.1369    7.0014 C   0  0  0  0  0  0  0  0  0  0  0  0
   -3.7333   28.6144    7.9819 O   0  0  0  0  0  0  0  0  0  0  0  0
   -3.0221   30.4833    6.7886 N   0  0  0  0  0  0  0  0  0  0  0  0
   -2.8031   28.8554    5.0386 H   0  0  0  0  0  0  0  0  0  0  0  0
   -2.4482   30.7082    5.9898 H   0  0  0  0  0  0  0  0  0  0  0  0
   -3.4195   31.5560    7.6089 C   0  0  0  0  0  0  0  0  0  0  0  0
   -2.8953   31.7998    8.8808 C   0  0  0  0  0  0  0  0  0  0  0  0
   -3.3464   32.8868    9.6385 C   0  0  0  0  0  0  0  0  0  0  0  0
   -4.3266   33.7321    9.1268 C   0  0  0  0  0  0  0  0  0  0  0  0
   -4.8811   35.0671   10.0586 Cl  0  0  0  0  0  0  0  0  0  0  0  0
   -4.8616   33.4991    7.8632 C   0  0  0  0  0  0  0  0  0  0  0  0
   -4.4091   32.4129    7.1078 C   0  0  0  0  0  0  0  0  0  0  0  0
   -3.6121   26.4229    3.4687 C   0  0  0  0  0  0  0  0  0  0  0  0
   -4.3537   25.3484    2.7092 C   0  0  0  0  0  0  0  0  0  0  0  0
   -4.0610   23.9959    2.9245 C   0  0  0  0  0  0  0  0  0  0  0  0
   -4.7595   23.0006    2.2376 C   0  0  0  0  0  0  0  0  0  0  0  0
   -5.7584   23.3386    1.3141 C   0  0  0  0  0  0  0  0  0  0  0  0
   -6.0555   24.6938    1.1062 C   0  0  0  0  0  0  0  0  0  0  0  0
   -5.3593   25.6891    1.7963 C   0  0  0  0  0  0  0  0  0  0  0  0
   -6.5296   22.2669    0.5849 C   0  0  0  0  0  0  0  0  0  0  0  0
   -6.8828   22.6212   -0.6823 F   0  0  0  0  0  0  0  0  0  0  0  0
   -5.8241   21.1082    0.4679 F   0  0  0  0  0  0  0  0  0  0  0  0
   -7.6929   21.9319    1.2122 F   0  0  0  0  0  0  0  0  0  0  0  0
  2  3  1  0  0  0
  3  4  1  0  0  0
  4  5  2  0  0  0
  4  1  1  0  0  0
  1  7  1  0  0  0
  7  8  1  0  0  0
  8  9  1  0  0  0
  9 10  2  0  0  0
  9 11  1  0  0  0
 11 14  1  0  0  0
 14 15  1  0  0  0
 15 16  2  0  0  0
 16 17  1  0  0  0
 17 18  1  0  0  0
 17 19  2  0  0  0
 19 20  1  0  0  0
  1 21  1  0  0  0
 21 22  1  0  0  0
 22 23  1  0  0  0
 23 24  2  0  0  0
 24 25  1  0  0  0
 25 28  1  0  0  0
 28 29  1  0  0  0
 28 30  1  0  0  0
 28 31  1  0  0  0
 25 26  2  0  0  0
 26 27  1  0  0  0
 20 14  2  0  0  0
 27 22  2  0  0  0
  3  6  1  0  0  0
  8 12  1  0  0  0
 11 13  1  0  0  0
M  END
> <minimizedAffinity>
-9.63928

$$$$
OCNT-2309207


 26 28  0  0  0  0  0  0  0  0999 V2000
   -2.4419   26.9909    5.4388 C   0  0  0  0  0  0  0  0  0  0  0  0
   -2.9416   27.8454    6.5506 N   0  0  0  0  0  0  0  0  0  0  0  0
   -3.9877   28.7674    6.0865 C   0  0  0  0  0  0  0  0  0  0  0  0
   -4.9964   28.8872    7.2149 C   0  0  0  0  0  0  0  0  0  0  0  0
   -6.1425   28.4560    7.0375 O   0  0  0  0  0  0  0  0  0  0  0  0
   -4.6045   29.4717    8.4168 N   0  0  0  0  0  0  0  0  0  0  0  0
   -5.6465   29.5498    9.4402 C   0  0  0  0  0  0  0  0  0  0  0  0
   -3.3315   30.0817    8.6907 C   0  0  0  0  0  0  0  0  0  0  0  0
   -3.3044   31.1259    9.6500 C   0  0  0  0  0  0  0  0  0  0  0  0
   -2.1367   31.8083    9.9995 C   0  0  0  0  0  0  0  0  0  0  0  0
   -0.9427   31.4657    9.3989 C   0  0  0  0  0  0  0  0  0  0  0  0
   -0.9318   30.4422    8.4581 C   0  0  0  0  0  0  0  0  0  0  0  0
   -2.1077   29.7315    8.0841 C   0  0  0  0  0  0  0  0  0  0  0  0
   -1.8252   28.6226    7.0878 C   0  0  0  0  0  0  0  0  0  0  0  0
   -3.4567   25.8933    3.5145 N   0  0  0  0  0  0  0  0  0  0  0  0
   -3.5162   26.0403    4.8858 C   0  0  0  0  0  0  0  0  0  0  0  0
   -4.3401   25.5351    5.6442 O   0  0  0  0  0  0  0  0  0  0  0  0
   -2.6575   26.3483    3.0815 H   0  0  0  0  0  0  0  0  0  0  0  0
   -5.8643   23.4383    1.0605 C   0  0  0  0  0  0  0  0  0  0  0  0
   -4.8740   22.9015    1.8894 C   0  0  0  0  0  0  0  0  0  0  0  0
   -4.0934   23.7380    2.6928 C   0  0  0  0  0  0  0  0  0  0  0  0
   -4.2859   25.1240    2.6810 C   0  0  0  0  0  0  0  0  0  0  0  0
   -5.2692   25.6609    1.8509 C   0  0  0  0  0  0  0  0  0  0  0  0
   -6.0504   24.8251    1.0445 C   0  0  0  0  0  0  0  0  0  0  0  0
   -7.8902   23.2806   -0.4087 C   0  0  0  0  0  0  0  0  0  0  0  0
   -6.6984   22.5428    0.1817 C   0  0  0  0  0  0  0  0  0  0  0  0
 25 26  1  0  0  0
 26 19  1  0  0  0
 19 20  1  0  0  0
 20 21  2  0  0  0
 21 22  1  0  0  0
 22 15  1  0  0  0
 15 16  1  0  0  0
 16 17  2  0  0  0
 16  1  1  0  0  0
  1  2  1  0  0  0
  2  3  1  0  0  0
  3  4  1  0  0  0
  4  5  2  0  0  0
  4  6  1  0  0  0
  6  7  1  0  0  0
  6  8  1  0  0  0
  8  9  2  0  0  0
  9 10  1  0  0  0
 10 11  2  0  0  0
 11 12  1  0  0  0
 12 13  2  0  0  0
 13 14  1  0  0  0
 22 23  2  0  0  0
 23 24  1  0  0  0
 24 19  2  0  0  0
 14  2  1  0  0  0
 13  8  1  0  0  0
 15 18  1  0  0  0
M  END
> <minimizedAffinity>
-9.83495

$$$$
OCNT-2309214


 24 26  0  0  0  0  0  0  0  0999 V2000
   -4.4170   30.2372    7.1905 N   0  0  0  0  0  0  0  0  0  0  0  0
   -4.1315   31.5683    6.5722 C   0  0  0  0  0  0  0  0  0  0  0  0
   -4.5246   32.7488    7.4804 C   0  0  0  0  0  0  0  0  0  0  0  0
   -3.8946   32.6753    8.8105 N   0  0  0  0  0  0  0  0  0  0  0  0
   -4.3529   33.7706    9.6631 C   0  0  0  0  0  0  0  0  0  0  0  0
   -4.1900   31.3654    9.4365 C   0  0  0  0  0  0  0  0  0  0  0  0
   -3.8142   30.1241    8.5648 C   0  0  0  0  0  0  0  0  0  0  0  0
   -2.3324   29.7668    8.4639 C   0  0  0  0  0  0  0  0  0  0  0  0
   -1.9751   28.6144    7.7376 C   0  0  0  0  0  0  0  0  0  0  0  0
   -0.6392   28.2329    7.6020 C   0  0  0  0  0  0  0  0  0  0  0  0
    0.3643   28.9997    8.1865 C   0  0  0  0  0  0  0  0  0  0  0  0
    0.0313   30.1470    8.9023 C   0  0  0  0  0  0  0  0  0  0  0  0
   -1.3064   30.5293    9.0390 C   0  0  0  0  0  0  0  0  0  0  0  0
   -5.9964   29.6386    7.0638 S   0  0  0  0  0  0  0  0  0  0  0  0
   -6.1942   28.6446    8.0968 O   0  0  0  0  0  0  0  0  0  0  0  0
   -6.8951   30.7656    6.9339 O   0  0  0  0  0  0  0  0  0  0  0  0
   -5.8680   26.6987    4.2831 C   0  0  0  0  0  0  0  0  0  0  0  0
   -5.9434   27.4329    3.0937 C   0  0  0  0  0  0  0  0  0  0  0  0
   -6.0228   28.8275    3.1128 C   0  0  0  0  0  0  0  0  0  0  0  0
   -6.0321   29.5021    4.3298 C   0  0  0  0  0  0  0  0  0  0  0  0
   -5.9653   28.7676    5.5173 C   0  0  0  0  0  0  0  0  0  0  0  0
   -5.8793   27.3702    5.5044 C   0  0  0  0  0  0  0  0  0  0  0  0
   -6.5795   24.5389    4.9824 C   0  0  0  0  0  0  0  0  0  0  0  0
   -5.7926   25.3438    4.1124 O   0  0  0  0  0  0  0  0  0  0  0  0
 23 24  1  0  0  0
 24 17  1  0  0  0
 17 18  1  0  0  0
 18 19  2  0  0  0
 19 20  1  0  0  0
 20 21  2  0  0  0
 21 14  1  0  0  0
 14 15  2  0  0  0
 14 16  2  0  0  0
 14  1  1  0  0  0
  1  2  1  0  0  0
  2  3  1  0  0  0
  3  4  1  0  0  0
  4  5  1  0  0  0
  4  6  1  0  0  0
  6  7  1  0  0  0
  7  8  1  0  0  0
  8  9  2  0  0  0
  9 10  1  0  0  0
 10 11  2  0  0  0
 11 12  1  0  0  0
 12 13  2  0  0  0
 21 22  1  0  0  0
 22 17  2  0  0  0
  7  1  1  0  0  0
 13  8  1  0  0  0
M  END
> <minimizedAffinity>
-9.00810

$$$$
OCNT-2309246


 24 28  0  0  0  0  0  0  0  0999 V2000
   -2.9849   25.0459    2.8735 O   0  0  0  0  0  0  0  0  0  0  0  0
   -4.1390   25.0721    3.2975 C   0  0  0  0  0  0  0  0  0  0  0  0
   -4.5875   26.0240    4.2276 N   0  0  0  0  0  0  0  0  0  0  0  0
   -5.9892   26.4549    4.2776 C   0  0  0  0  0  0  0  0  0  0  0  0
   -6.1145   27.9649    4.4150 C   0  0  0  0  0  0  0  0  0  0  0  0
   -5.4404   28.4301    5.6212 N   0  0  0  0  0  0  0  0  0  0  0  0
   -4.1600   27.8562    5.8562 C   0  0  0  0  0  0  0  0  0  0  0  0
   -3.3036   28.4210    6.8235 C   0  0  0  0  0  0  0  0  0  0  0  0
   -2.0305   27.9074    7.0699 C   0  0  0  0  0  0  0  0  0  0  0  0
   -1.5877   26.8013    6.3626 C   0  0  0  0  0  0  0  0  0  0  0  0
   -2.4214   26.2010    5.4180 C   0  0  0  0  0  0  0  0  0  0  0  0
   -3.7077   26.7039    5.1480 C   0  0  0  0  0  0  0  0  0  0  0  0
   -5.1050   24.1066    2.8213 C   0  0  0  0  0  0  0  0  0  0  0  0
   -5.4771   22.8861    3.3579 C   0  0  0  0  0  0  0  0  0  0  0  0
   -6.4280   22.2605    2.5995 N   0  0  0  0  0  0  0  0  0  0  0  0
   -6.6151   23.0517    1.5662 C   0  0  0  0  0  0  0  0  0  0  0  0
   -7.4722   22.9195    0.4365 C   0  0  0  0  0  0  0  0  0  0  0  0
   -7.4882   23.8778   -0.5094 C   0  0  0  0  0  0  0  0  0  0  0  0
   -6.6447   25.0567   -0.4074 C   0  0  0  0  0  0  0  0  0  0  0  0
   -5.8343   25.1888    0.6564 C   0  0  0  0  0  0  0  0  0  0  0  0
   -5.8161   24.1931    1.6377 N   0  0  0  0  0  0  0  0  0  0  0  0
   -5.8372   29.7262    6.1961 C   0  0  0  0  0  0  0  0  0  0  0  0
   -6.3836   29.8920    7.5913 C   0  0  0  0  0  0  0  0  0  0  0  0
   -7.2878   30.0743    6.4130 C   0  0  0  0  0  0  0  0  0  0  0  0
  1  2  2  0  0  0
  2 13  1  0  0  0
 13 14  2  0  0  0
 14 15  1  0  0  0
 15 16  2  0  0  0
 16 17  1  0  0  0
 17 18  2  0  0  0
 18 19  1  0  0  0
 19 20  2  0  0  0
 20 21  1  0  0  0
  2  3  1  0  0  0
  3  4  1  0  0  0
  4  5  1  0  0  0
  5  6  1  0  0  0
  6 22  1  0  0  0
 22 23  1  0  0  0
 23 24  1  0  0  0
  6  7  1  0  0  0
  7  8  2  0  0  0
  8  9  1  0  0  0
  9 10  2  0  0  0
 10 11  1  0  0  0
 11 12  2  0  0  0
 21 13  1  0  0  0
 12  3  1  0  0  0
 21 16  1  0  0  0
 24 22  1  0  0  0
 12  7  1  0  0  0
M  END
> <minimizedAffinity>
-9.16923

$$$$
OCNT-2309252


 23 25  0  0  0  0  0  0  0  0999 V2000
   -7.9804   30.1770    6.0778 O   0  0  0  0  0  0  0  0  0  0  0  0
   -6.8146   29.7734    6.0637 C   0  0  0  0  0  0  0  0  0  0  0  0
   -5.9406   30.0852    7.1160 N   0  0  0  0  0  0  0  0  0  0  0  0
   -6.3810   31.0716    8.0989 C   0  0  0  0  0  0  0  0  0  0  0  0
   -5.1953   31.8120    8.7070 C   0  0  0  0  0  0  0  0  0  0  0  0
   -4.2616   30.8482    9.4569 C   0  0  0  0  0  0  0  0  0  0  0  0
   -4.2511   29.4423    8.8299 C   0  0  0  0  0  0  0  0  0  0  0  0
   -4.6539   29.4283    7.3550 C   0  0  0  0  0  0  0  0  0  0  0  0
   -6.3519   28.9627    4.9240 C   0  0  0  0  0  0  0  0  0  0  0  0
   -6.1087   29.4423    3.6932 N   0  0  0  0  0  0  0  0  0  0  0  0
   -5.7344   28.3615    2.9220 O   0  0  0  0  0  0  0  0  0  0  0  0
   -5.7719   27.2199    3.6656 C   0  0  0  0  0  0  0  0  0  0  0  0
   -6.1662   27.5514    4.9392 C   0  0  0  0  0  0  0  0  0  0  0  0
   -5.4129   25.9813    2.9847 C   0  0  0  0  0  0  0  0  0  0  0  0
   -4.6676   24.9860    3.6248 C   0  0  0  0  0  0  0  0  0  0  0  0
   -4.3574   23.8290    2.9279 C   0  0  0  0  0  0  0  0  0  0  0  0
   -4.7337   23.5976    1.6541 N   0  0  0  0  0  0  0  0  0  0  0  0
   -5.4501   24.5663    1.0496 C   0  0  0  0  0  0  0  0  0  0  0  0
   -5.8092   25.7566    1.6628 C   0  0  0  0  0  0  0  0  0  0  0  0
   -2.8552   31.4388    9.6656 C   0  0  0  0  0  0  0  0  0  0  0  0
   -1.6998   30.6330    9.0790 C   0  0  0  0  0  0  0  0  0  0  0  0
   -0.4667   31.2482    9.4333 O   0  0  0  0  0  0  0  0  0  0  0  0
   -0.4011   31.2419   10.4035 H   0  0  0  0  0  0  0  0  0  0  0  0
  1  2  2  0  0  0
  2  9  1  0  0  0
  9 10  2  0  0  0
 10 11  1  0  0  0
 11 12  1  0  0  0
 12 14  1  0  0  0
 14 15  2  0  0  0
 15 16  1  0  0  0
 16 17  2  0  0  0
 17 18  1  0  0  0
 18 19  2  0  0  0
 12 13  2  0  0  0
  2  3  1  0  0  0
  3  4  1  0  0  0
  4  5  1  0  0  0
  5  6  1  0  0  0
  6 20  1  0  0  0
 20 21  1  0  0  0
 21 22  1  0  0  0
  6  7  1  0  0  0
  7  8  1  0  0  0
 13  9  1  0  0  0
  8  3  1  0  0  0
 19 14  1  0  0  0
 22 23  1  0  0  0
M  END
> <minimizedAffinity>
-8.40509

$$$$
OCNT-2309256


 21 23  0  0  0  0  0  0  0  0999 V2000
   -5.7244   29.1622    4.7564 C   0  0  0  0  0  0  0  0  0  0  0  0
   -5.8435   30.0090    3.8694 O   0  0  0  0  0  0  0  0  0  0  0  0
   -5.7979   27.7896    4.4595 N   0  0  0  0  0  0  0  0  0  0  0  0
   -6.0183   26.7752    5.4889 C   0  0  0  0  0  0  0  0  0  0  0  0
   -6.3210   25.3902    4.9206 C   0  0  0  0  0  0  0  0  0  0  0  0
   -5.2953   25.0363    3.8352 C   0  0  0  0  0  0  0  0  0  0  0  0
   -5.2569   26.1073    2.7049 C   0  0  0  0  0  0  0  0  0  0  0  0
   -5.7675   25.5812    1.3585 C   0  0  0  0  0  0  0  0  0  0  0  0
   -5.1123   24.2613    0.9543 C   0  0  0  0  0  0  0  0  0  0  0  0
   -4.5420   23.4806    2.1387 C   0  0  0  0  0  0  0  0  0  0  0  0
   -5.3199   23.6316    3.3712 N   0  0  0  0  0  0  0  0  0  0  0  0
   -6.6411   23.0198    3.2697 C   0  0  0  0  0  0  0  0  0  0  0  0
   -6.0166   27.3909    3.0767 C   0  0  0  0  0  0  0  0  0  0  0  0
   -4.3657   29.5729    6.8912 C   0  0  0  0  0  0  0  0  0  0  0  0
   -5.5267   29.5396    6.1446 C   0  0  0  0  0  0  0  0  0  0  0  0
   -6.8764   30.0941    7.0390 S   0  0  0  0  0  0  0  0  0  0  0  0
   -5.9348   30.3306    8.4459 C   0  0  0  0  0  0  0  0  0  0  0  0
   -6.5776   30.8329    9.6927 C   0  0  0  0  0  0  0  0  0  0  0  0
   -4.6084   30.0159    8.2280 C   0  0  0  0  0  0  0  0  0  0  0  0
   -2.6775   27.9520    6.7493 C   0  0  0  0  0  0  0  0  0  0  0  0
   -3.1876   29.2070    6.3214 O   0  0  0  0  0  0  0  0  0  0  0  0
 20 21  1  0  0  0
 21 14  1  0  0  0
 14 15  2  0  0  0
 15  1  1  0  0  0
  1  2  2  0  0  0
  1  3  1  0  0  0
  3  4  1  0  0  0
  4  5  1  0  0  0
  5  6  1  0  0  0
  6  7  1  0  0  0
  7  8  1  0  0  0
  8  9  1  0  0  0
  9 10  1  0  0  0
 10 11  1  0  0  0
 11 12  1  0  0  0
  7 13  1  0  0  0
 15 16  1  0  0  0
 16 17  1  0  0  0
 17 18  1  0  0  0
 17 19  2  0  0  0
 19 14  1  0  0  0
 13  3  1  0  0  0
 11  6  1  0  0  0
M  END
> <minimizedAffinity>
-7.53156

$$$$
OCNT-2309262


 23 25  0  0  0  0  0  0  0  0999 V2000
   -0.3452   27.6282    7.3973 N   0  0  0  0  0  0  0  0  0  0  0  0
    0.2062   26.9056    7.8564 H   0  0  0  0  0  0  0  0  0  0  0  0
   -1.2274   27.2417    6.3524 C   0  0  0  0  0  0  0  0  0  0  0  0
   -2.5649   27.6341    6.4184 C   0  0  0  0  0  0  0  0  0  0  0  0
   -3.4678   27.2335    5.4266 C   0  0  0  0  0  0  0  0  0  0  0  0
   -3.0305   26.4371    4.3594 C   0  0  0  0  0  0  0  0  0  0  0  0
   -1.6815   26.0541    4.2971 C   0  0  0  0  0  0  0  0  0  0  0  0
   -0.7847   26.4569    5.2907 C   0  0  0  0  0  0  0  0  0  0  0  0
   -3.9266   26.0090    3.3385 N   0  0  0  0  0  0  0  0  0  0  0  0
   -5.2086   26.4537    3.0867 C   0  0  0  0  0  0  0  0  0  0  0  0
   -5.6791   25.7477    2.0048 C   0  0  0  0  0  0  0  0  0  0  0  0
   -4.6241   24.8940    1.6584 C   0  0  0  0  0  0  0  0  0  0  0  0
   -3.5656   25.0418    2.4543 N   0  0  0  0  0  0  0  0  0  0  0  0
    0.7433   29.3062    5.8815 O   0  0  0  0  0  0  0  0  0  0  0  0
    0.4855   29.0938    7.2906 S   0  0  0  0  0  0  0  0  0  0  0  0
    1.5573   29.1194    8.2616 O   0  0  0  0  0  0  0  0  0  0  0  0
   -0.7411   30.2857    7.7900 C   0  0  0  0  0  0  0  0  0  0  0  0
   -1.5586   30.8788    6.8216 C   0  0  0  0  0  0  0  0  0  0  0  0
   -2.5160   31.8170    7.2131 C   0  0  0  0  0  0  0  0  0  0  0  0
   -2.6421   32.1612    8.5602 C   0  0  0  0  0  0  0  0  0  0  0  0
   -3.8283   33.3120    9.0374 Cl  0  0  0  0  0  0  0  0  0  0  0  0
   -1.8131   31.5825    9.5222 C   0  0  0  0  0  0  0  0  0  0  0  0
   -0.8520   30.6456    9.1376 C   0  0  0  0  0  0  0  0  0  0  0  0
 14 15  2  0  0  0
 15 16  2  0  0  0
 15  1  1  0  0  0
  1  3  1  0  0  0
  3  4  1  0  0  0
  4  5  2  0  0  0
  5  6  1  0  0  0
  6  9  1  0  0  0
  9 10  1  0  0  0
 10 11  2  0  0  0
 11 12  1  0  0  0
 12 13  2  0  0  0
  6  7  2  0  0  0
  7  8  1  0  0  0
 15 17  1  0  0  0
 17 18  1  0  0  0
 18 19  2  0  0  0
 19 20  1  0  0  0
 20 21  1  0  0  0
 20 22  2  0  0  0
 22 23  1  0  0  0
  8  3  2  0  0  0
 23 17  2  0  0  0
 13  9  1  0  0  0
  1  2  1  0  0  0
M  END
> <minimizedAffinity>
-9.27097

$$$$
OCNT-2309265


 25 28  0  0  0  0  0  0  0  0999 V2000
   -4.3985   26.0041    3.9443 N   0  0  0  0  0  0  0  0  0  0  0  0
   -5.3693   27.1162    3.9261 C   0  0  0  0  0  0  0  0  0  0  0  0
   -5.5958   27.8113    5.2890 C   0  0  0  0  0  0  0  0  0  0  0  0
   -4.3165   28.2730    5.8497 N   0  0  0  0  0  0  0  0  0  0  0  0
   -3.1712   27.3598    5.6792 C   0  0  0  0  0  0  0  0  0  0  0  0
   -3.6156   25.9600    5.1888 C   0  0  0  0  0  0  0  0  0  0  0  0
   -4.4004   28.9796    7.0473 C   0  0  0  0  0  0  0  0  0  0  0  0
   -5.5597   28.9491    7.7630 N   0  0  0  0  0  0  0  0  0  0  0  0
   -5.6444   29.6301    8.9232 C   0  0  0  0  0  0  0  0  0  0  0  0
   -4.7049   30.3867    9.5098 N   0  0  0  0  0  0  0  0  0  0  0  0
   -3.5853   30.4278    8.7681 C   0  0  0  0  0  0  0  0  0  0  0  0
   -3.3636   29.7792    7.5647 C   0  0  0  0  0  0  0  0  0  0  0  0
   -2.0617   30.1832    7.1941 C   0  0  0  0  0  0  0  0  0  0  0  0
   -1.4809   30.9833    8.0954 N   0  0  0  0  0  0  0  0  0  0  0  0
   -2.4375   31.1216    9.0419 N   0  0  0  0  0  0  0  0  0  0  0  0
   -2.1798   31.9503   10.1926 C   0  0  0  0  0  0  0  0  0  0  0  0
   -4.9569   24.7079    3.5438 C   0  0  0  0  0  0  0  0  0  0  0  0
   -4.4229   24.1041    2.2306 C   0  0  0  0  0  0  0  0  0  0  0  0
   -5.8490   21.4612    1.7863 C   0  0  0  0  0  0  0  0  0  0  0  0
   -6.1920   22.7027    1.0189 C   0  0  0  0  0  0  0  0  0  0  0  0
   -7.1965   22.6593    0.0520 C   0  0  0  0  0  0  0  0  0  0  0  0
   -7.5817   23.7113   -0.7035 N   0  0  0  0  0  0  0  0  0  0  0  0
   -6.9334   24.8724   -0.4921 C   0  0  0  0  0  0  0  0  0  0  0  0
   -5.9172   25.0275    0.4365 C   0  0  0  0  0  0  0  0  0  0  0  0
   -5.5250   23.9254    1.2084 C   0  0  0  0  0  0  0  0  0  0  0  0
 19 20  1  0  0  0
 20 21  2  0  0  0
 21 22  1  0  0  0
 22 23  2  0  0  0
 23 24  1  0  0  0
 24 25  2  0  0  0
 25 18  1  0  0  0
 18 17  1  0  0  0
 17  1  1  0  0  0
  1  2  1  0  0  0
  2  3  1  0  0  0
  3  4  1  0  0  0
  4  7  1  0  0  0
  7  8  1  0  0  0
  8  9  2  0  0  0
  9 10  1  0  0  0
 10 11  2  0  0  0
 11 12  1  0  0  0
 12 13  1  0  0  0
 13 14  2  0  0  0
 14 15  1  0  0  0
 15 16  1  0  0  0
  4  5  1  0  0  0
  5  6  1  0  0  0
 25 20  1  0  0  0
  6  1  1  0  0  0
 12  7  2  0  0  0
 15 11  1  0  0  0
M  END
> <minimizedAffinity>
-8.75835

$$$$
OCNT-2309277


 23 25  0  0  0  0  0  0  0  0999 V2000
   -2.0658   27.1772    7.8640 O   0  0  0  0  0  0  0  0  0  0  0  0
   -2.0562   27.7146    6.7565 C   0  0  0  0  0  0  0  0  0  0  0  0
   -1.3515   28.8832    6.5573 N   0  0  0  0  0  0  0  0  0  0  0  0
   -1.4620   29.3749    5.6813 H   0  0  0  0  0  0  0  0  0  0  0  0
   -2.7676   27.1864    5.5953 C   0  0  0  0  0  0  0  0  0  0  0  0
   -2.3749   26.3527    4.5629 C   0  0  0  0  0  0  0  0  0  0  0  0
   -0.8071   25.6639    4.3553 Cl  0  0  0  0  0  0  0  0  0  0  0  0
   -3.4249   26.0823    3.6087 C   0  0  0  0  0  0  0  0  0  0  0  0
   -3.4408   25.2919    2.4276 C   0  0  0  0  0  0  0  0  0  0  0  0
   -4.5998   25.1819    1.6534 C   0  0  0  0  0  0  0  0  0  0  0  0
   -5.7560   25.8471    2.0303 C   0  0  0  0  0  0  0  0  0  0  0  0
   -5.7755   26.6323    3.1839 C   0  0  0  0  0  0  0  0  0  0  0  0
   -4.6040   26.7395    3.9603 C   0  0  0  0  0  0  0  0  0  0  0  0
   -4.4112   27.6459    5.4021 S   0  0  0  0  0  0  0  0  0  0  0  0
   -0.7277   29.6025    7.6430 C   0  0  0  0  0  0  0  0  0  0  0  0
   -1.6563   30.6595    8.1815 C   0  0  0  0  0  0  0  0  0  0  0  0
   -1.5092   31.1453    9.4895 C   0  0  0  0  0  0  0  0  0  0  0  0
   -2.3571   32.1445    9.9723 C   0  0  0  0  0  0  0  0  0  0  0  0
   -3.3522   32.6720    9.1512 C   0  0  0  0  0  0  0  0  0  0  0  0
   -3.4929   32.2004    7.8521 C   0  0  0  0  0  0  0  0  0  0  0  0
   -4.4722   32.7486    7.0777 O   0  0  0  0  0  0  0  0  0  0  0  0
   -2.6562   31.2029    7.3600 C   0  0  0  0  0  0  0  0  0  0  0  0
   -4.4352   32.3347    6.1992 H   0  0  0  0  0  0  0  0  0  0  0  0
  1  2  2  0  0  0
  2  3  1  0  0  0
  3 15  1  0  0  0
 15 16  1  0  0  0
 16 17  2  0  0  0
 17 18  1  0  0  0
 18 19  2  0  0  0
 19 20  1  0  0  0
 20 21  1  0  0  0
 20 22  2  0  0  0
  2  5  1  0  0  0
  5  6  2  0  0  0
  6  7  1  0  0  0
  6  8  1  0  0  0
  8  9  2  0  0  0
  9 10  1  0  0  0
 10 11  2  0  0  0
 11 12  1  0  0  0
 12 13  2  0  0  0
 13 14  1  0  0  0
 22 16  1  0  0  0
 14  5  1  0  0  0
 13  8  1  0  0  0
  3  4  1  0  0  0
 21 23  1  0  0  0
M  END
> <minimizedAffinity>
-8.88388

$$$$
OCNT-2309284


 29 32  0  0  0  0  0  0  0  0999 V2000
   -5.8183   29.5987    3.9734 O   0  0  0  0  0  0  0  0  0  0  0  0
   -6.2699   28.6452    4.5965 C   0  0  0  0  0  0  0  0  0  0  0  0
   -6.8790   28.7635    5.8289 N   0  0  0  0  0  0  0  0  0  0  0  0
   -7.0945   27.9319    6.3614 H   0  0  0  0  0  0  0  0  0  0  0  0
   -6.1350   27.2664    4.0538 C   0  0  0  0  0  0  0  0  0  0  0  0
   -6.3320   26.1879    4.9226 C   0  0  0  0  0  0  0  0  0  0  0  0
   -6.2115   24.8750    4.4573 C   0  0  0  0  0  0  0  0  0  0  0  0
   -5.8794   24.6295    3.1161 C   0  0  0  0  0  0  0  0  0  0  0  0
   -5.6652   25.7104    2.2479 C   0  0  0  0  0  0  0  0  0  0  0  0
   -5.7906   27.0242    2.7184 C   0  0  0  0  0  0  0  0  0  0  0  0
   -5.7589   23.2931    2.6624 N   0  0  0  0  0  0  0  0  0  0  0  0
   -5.4001   22.1635    3.3542 C   0  0  0  0  0  0  0  0  0  0  0  0
   -5.4110   21.1320    2.5417 N   0  0  0  0  0  0  0  0  0  0  0  0
   -5.7844   21.6263    1.3207 N   0  0  0  0  0  0  0  0  0  0  0  0
   -5.9979   22.9331    1.3806 N   0  0  0  0  0  0  0  0  0  0  0  0
   -7.0468   30.0495    6.4773 C   0  0  0  0  0  0  0  0  0  0  0  0
   -5.8830   30.4760    7.3667 C   0  0  0  0  0  0  0  0  0  0  0  0
   -6.0186   30.1014    8.8403 C   0  0  0  0  0  0  0  0  0  0  0  0
   -4.6057   30.3312    9.3782 C   0  0  0  0  0  0  0  0  0  0  0  0
   -3.7392   30.0481    8.2355 N   0  0  0  0  0  0  0  0  0  0  0  0
   -4.5173   29.8856    7.0016 C   0  0  0  0  0  0  0  0  0  0  0  0
   -2.3836   29.8368    8.3246 C   0  0  0  0  0  0  0  0  0  0  0  0
   -1.5457   30.7093    9.0459 C   0  0  0  0  0  0  0  0  0  0  0  0
   -0.1626   30.5063    9.1408 C   0  0  0  0  0  0  0  0  0  0  0  0
    0.4108   29.4166    8.5071 C   0  0  0  0  0  0  0  0  0  0  0  0
    1.7331   29.2194    8.5962 F   0  0  0  0  0  0  0  0  0  0  0  0
   -0.3840   28.5415    7.7866 C   0  0  0  0  0  0  0  0  0  0  0  0
    0.1645   27.4843    7.1710 F   0  0  0  0  0  0  0  0  0  0  0  0
   -1.7609   28.7471    7.6936 C   0  0  0  0  0  0  0  0  0  0  0  0
  1  2  2  0  0  0
  2  3  1  0  0  0
  3 16  1  0  0  0
 16 17  1  0  0  0
 17 18  1  0  0  0
 18 19  1  0  0  0
 19 20  1  0  0  0
 20 22  1  0  0  0
 22 23  1  0  0  0
 23 24  2  0  0  0
 24 25  1  0  0  0
 25 26  1  0  0  0
 25 27  2  0  0  0
 27 28  1  0  0  0
 27 29  1  0  0  0
 20 21  1  0  0  0
  2  5  1  0  0  0
  5  6  1  0  0  0
  6  7  2  0  0  0
  7  8  1  0  0  0
  8 11  1  0  0  0
 11 12  1  0  0  0
 12 13  2  0  0  0
 13 14  1  0  0  0
 14 15  2  0  0  0
  8  9  2  0  0  0
  9 10  1  0  0  0
 21 17  1  0  0  0
 10  5  2  0  0  0
 29 22  2  0  0  0
 15 11  1  0  0  0
  3  4  1  0  0  0
M  END
> <minimizedAffinity>
-10.19245

$$$$
OCNT-2309291


 23 25  0  0  0  0  0  0  0  0999 V2000
   -4.5178   29.8828    8.2317 C   0  0  0  0  0  0  0  0  0  0  0  0
   -4.4743   28.7443    8.7099 O   0  0  0  0  0  0  0  0  0  0  0  0
   -3.4471   30.7430    8.3708 N   0  0  0  0  0  0  0  0  0  0  0  0
   -3.3509   32.1250    7.9199 C   0  0  0  0  0  0  0  0  0  0  0  0
   -1.9194   32.5473    8.2206 C   0  0  0  0  0  0  0  0  0  0  0  0
   -1.5282   31.6470    9.3878 C   0  0  0  0  0  0  0  0  0  0  0  0
   -2.2285   30.3255    9.0657 C   0  0  0  0  0  0  0  0  0  0  0  0
   -1.4245   29.4338    8.1581 C   0  0  0  0  0  0  0  0  0  0  0  0
   -0.5640   29.7807    7.2186 N   0  0  0  0  0  0  0  0  0  0  0  0
   -0.1141   28.6055    6.6736 C   0  0  0  0  0  0  0  0  0  0  0  0
   -0.7102   27.5267    7.2784 C   0  0  0  0  0  0  0  0  0  0  0  0
   -1.5347   28.0623    8.2258 N   0  0  0  0  0  0  0  0  0  0  0  0
   -2.1748   27.5683    8.8416 H   0  0  0  0  0  0  0  0  0  0  0  0
   -5.7447   30.3848    7.4397 C   0  0  0  0  0  0  0  0  0  0  0  0
   -6.6235   31.1970    8.3877 C   0  0  0  0  0  0  0  0  0  0  0  0
   -6.5566   29.3267    6.9318 O   0  0  0  0  0  0  0  0  0  0  0  0
   -5.9044   25.4526    4.1086 C   0  0  0  0  0  0  0  0  0  0  0  0
   -5.9993   26.9427    4.2446 C   0  0  0  0  0  0  0  0  0  0  0  0
   -5.9069   27.7703    3.1223 C   0  0  0  0  0  0  0  0  0  0  0  0
   -6.0228   29.1532    3.2593 C   0  0  0  0  0  0  0  0  0  0  0  0
   -6.2446   29.7230    4.5159 C   0  0  0  0  0  0  0  0  0  0  0  0
   -6.3475   28.9100    5.6448 C   0  0  0  0  0  0  0  0  0  0  0  0
   -6.2316   27.5236    5.4990 C   0  0  0  0  0  0  0  0  0  0  0  0
 17 18  1  0  0  0
 18 19  2  0  0  0
 19 20  1  0  0  0
 20 21  2  0  0  0
 21 22  1  0  0  0
 22 16  1  0  0  0
 16 14  1  0  0  0
 14 15  1  0  0  0
 14  1  1  0  0  0
  1  2  2  0  0  0
  1  3  1  0  0  0
  3  4  1  0  0  0
  4  5  1  0  0  0
  5  6  1  0  0  0
  6  7  1  0  0  0
  7  8  1  0  0  0
  8  9  2  0  0  0
  9 10  1  0  0  0
 10 11  2  0  0  0
 11 12  1  0  0  0
 22 23  2  0  0  0
 23 18  1  0  0  0
  7  3  1  0  0  0
 12  8  1  0  0  0
 12 13  1  0  0  0
M  END
> <minimizedAffinity>
-9.03637

$$$$
OCNT-2309292


 27 30  0  0  0  0  0  0  0  0999 V2000
   -5.6888   25.2669    2.6405 C   0  0  0  0  0  0  0  0  0  0  0  0
   -6.1118   25.7763    1.5939 O   0  0  0  0  0  0  0  0  0  0  0  0
   -5.2652   26.0927    3.6750 N   0  0  0  0  0  0  0  0  0  0  0  0
   -5.3894   27.5445    3.4820 C   0  0  0  0  0  0  0  0  0  0  0  0
   -5.4060   28.3403    4.7978 C   0  0  0  0  0  0  0  0  0  0  0  0
   -4.2285   28.0444    5.6361 N   0  0  0  0  0  0  0  0  0  0  0  0
   -3.6057   26.7224    5.4549 C   0  0  0  0  0  0  0  0  0  0  0  0
   -4.6151   25.6835    4.9260 C   0  0  0  0  0  0  0  0  0  0  0  0
   -3.9174   28.8674    6.6824 C   0  0  0  0  0  0  0  0  0  0  0  0
   -3.1817   30.0327    6.7512 C   0  0  0  0  0  0  0  0  0  0  0  0
   -3.2367   30.4284    8.0971 C   0  0  0  0  0  0  0  0  0  0  0  0
   -3.9380   29.5850    8.8518 N   0  0  0  0  0  0  0  0  0  0  0  0
   -4.3113   28.6338    7.9785 N   0  0  0  0  0  0  0  0  0  0  0  0
   -4.8359   27.8453    8.3305 H   0  0  0  0  0  0  0  0  0  0  0  0
   -2.5775   31.7234    8.6381 C   0  0  0  0  0  0  0  0  0  0  0  0
   -1.1732   31.6550    9.1839 C   0  0  0  0  0  0  0  0  0  0  0  0
   -2.3274   31.8841   10.1154 C   0  0  0  0  0  0  0  0  0  0  0  0
   -4.1401   23.2838    2.8417 C   0  0  0  0  0  0  0  0  0  0  0  0
   -5.6328   23.7106    2.7769 C   0  0  0  0  0  0  0  0  0  0  0  0
   -6.2011   23.0738    1.4889 C   0  0  0  0  0  0  0  0  0  0  0  0
   -6.2715   23.2174    4.0895 C   0  0  0  0  0  0  0  0  0  0  0  0
   -5.5059   22.4649    5.0048 C   0  0  0  0  0  0  0  0  0  0  0  0
   -6.0618   21.9987    6.1988 C   0  0  0  0  0  0  0  0  0  0  0  0
   -7.3922   22.2658    6.4841 C   0  0  0  0  0  0  0  0  0  0  0  0
   -7.9282   21.8173    7.6281 F   0  0  0  0  0  0  0  0  0  0  0  0
   -8.1819   22.9772    5.5908 C   0  0  0  0  0  0  0  0  0  0  0  0
   -7.6281   23.4468    4.3961 C   0  0  0  0  0  0  0  0  0  0  0  0
 18 19  1  0  0  0
 19 20  1  0  0  0
 19  1  1  0  0  0
  1  2  2  0  0  0
  1  3  1  0  0  0
  3  4  1  0  0  0
  4  5  1  0  0  0
  5  6  1  0  0  0
  6  9  1  0  0  0
  9 10  2  0  0  0
 10 11  1  0  0  0
 11 15  1  0  0  0
 15 16  1  0  0  0
 16 17  1  0  0  0
 11 12  2  0  0  0
 12 13  1  0  0  0
  6  7  1  0  0  0
  7  8  1  0  0  0
 19 21  1  0  0  0
 21 22  1  0  0  0
 22 23  2  0  0  0
 23 24  1  0  0  0
 24 25  1  0  0  0
 24 26  2  0  0  0
 26 27  1  0  0  0
  8  3  1  0  0  0
 27 21  2  0  0  0
 13  9  1  0  0  0
 17 15  1  0  0  0
 13 14  1  0  0  0
M  END
> <minimizedAffinity>
-9.42308

$$$$
OCNT-2309302


 26 30  0  0  0  0  0  0  0  0999 V2000
   -3.8529   28.4298    6.1472 O   0  0  0  0  0  0  0  0  0  0  0  0
   -3.4035   27.3164    5.8932 C   0  0  0  0  0  0  0  0  0  0  0  0
   -2.3141   26.7852    6.5378 N   0  0  0  0  0  0  0  0  0  0  0  0
   -1.9264   25.9139    6.2133 H   0  0  0  0  0  0  0  0  0  0  0  0
   -3.9881   26.4742    4.8723 C   0  0  0  0  0  0  0  0  0  0  0  0
   -3.6798   26.2623    3.5387 C   0  0  0  0  0  0  0  0  0  0  0  0
   -4.6015   25.3155    3.0089 C   0  0  0  0  0  0  0  0  0  0  0  0
   -4.7897   24.7215    1.7485 C   0  0  0  0  0  0  0  0  0  0  0  0
   -3.9843   25.0336    0.7226 F   0  0  0  0  0  0  0  0  0  0  0  0
   -5.8192   23.8003    1.5527 C   0  0  0  0  0  0  0  0  0  0  0  0
   -6.6668   23.4634    2.6062 C   0  0  0  0  0  0  0  0  0  0  0  0
   -6.5056   24.0368    3.8736 C   0  0  0  0  0  0  0  0  0  0  0  0
   -5.4645   24.9590    4.0434 C   0  0  0  0  0  0  0  0  0  0  0  0
   -5.0718   25.6676    5.1527 N   0  0  0  0  0  0  0  0  0  0  0  0
   -5.5065   25.6199    6.0656 H   0  0  0  0  0  0  0  0  0  0  0  0
   -1.5620   27.5260    7.5231 C   0  0  0  0  0  0  0  0  0  0  0  0
   -0.4084   28.2013    6.8538 C   0  0  0  0  0  0  0  0  0  0  0  0
    0.5705   29.0966    7.5878 C   0  0  0  0  0  0  0  0  0  0  0  0
    0.3116   29.7203    8.9520 C   0  0  0  0  0  0  0  0  0  0  0  0
   -0.8099   30.6981    8.6960 C   0  0  0  0  0  0  0  0  0  0  0  0
   -1.4187   31.5335    9.6199 C   0  0  0  0  0  0  0  0  0  0  0  0
   -2.4589   32.3545    9.1833 C   0  0  0  0  0  0  0  0  0  0  0  0
   -2.8740   32.3288    7.8438 C   0  0  0  0  0  0  0  0  0  0  0  0
   -2.2527   31.4822    6.9213 C   0  0  0  0  0  0  0  0  0  0  0  0
   -1.2159   30.6652    7.3483 C   0  0  0  0  0  0  0  0  0  0  0  0
   -0.4023   29.6844    6.5644 C   0  0  0  0  0  0  0  0  0  0  0  0
  1  2  2  0  0  0
  2  3  1  0  0  0
  3 16  1  0  0  0
 16 17  1  0  0  0
 17 18  1  0  0  0
 18 19  1  0  0  0
 19 20  1  0  0  0
 20 21  2  0  0  0
 21 22  1  0  0  0
 22 23  2  0  0  0
 23 24  1  0  0  0
 24 25  2  0  0  0
 25 26  1  0  0  0
  2  5  1  0  0  0
  5  6  2  0  0  0
  6  7  1  0  0  0
  7  8  2  0  0  0
  8  9  1  0  0  0
  8 10  1  0  0  0
 10 11  2  0  0  0
 11 12  1  0  0  0
 12 13  2  0  0  0
 13 14  1  0  0  0
 26 17  1  0  0  0
 14  5  1  0  0  0
 26 18  1  0  0  0
 13  7  1  0  0  0
 25 20  1  0  0  0
  3  4  1  0  0  0
 14 15  1  0  0  0
M  END
> <minimizedAffinity>
-10.74658

$$$$
OCNT-2309338


 24 25  0  0  0  0  0  0  0  0999 V2000
   -5.1275   31.3881    8.3379 C   0  0  0  0  0  0  0  0  0  0  0  0
   -5.7577   30.4610    9.4138 C   0  0  0  0  0  0  0  0  0  0  0  0
   -3.7092   30.8854    7.9307 C   0  0  0  0  0  0  0  0  0  0  0  0
   -3.0791   29.8581    8.6676 C   0  0  0  0  0  0  0  0  0  0  0  0
   -1.8095   29.3797    8.3293 C   0  0  0  0  0  0  0  0  0  0  0  0
   -1.1405   29.9193    7.2385 C   0  0  0  0  0  0  0  0  0  0  0  0
    0.5752   29.2786    6.7736 Br  0  0  0  0  0  0  0  0  0  0  0  0
   -1.7314   30.9279    6.4861 C   0  0  0  0  0  0  0  0  0  0  0  0
   -3.0032   31.4040    6.8288 C   0  0  0  0  0  0  0  0  0  0  0  0
   -3.7766   33.1666    9.7125 C   0  0  0  0  0  0  0  0  0  0  0  0
   -5.0481   32.8671    8.8998 C   0  0  0  0  0  0  0  0  0  0  0  0
   -5.2104   33.9670    7.8374 C   0  0  0  0  0  0  0  0  0  0  0  0
   -5.9792   31.3124    7.1188 N   0  0  0  0  0  0  0  0  0  0  0  0
   -5.3714   31.3670    6.3018 H   0  0  0  0  0  0  0  0  0  0  0  0
   -6.8850   30.1705    6.9705 C   0  0  0  0  0  0  0  0  0  0  0  0
   -6.4542   29.2857    5.8502 C   0  0  0  0  0  0  0  0  0  0  0  0
   -6.0135   27.9791    5.8733 C   0  0  0  0  0  0  0  0  0  0  0  0
   -5.7600   27.6821    4.5622 N   0  0  0  0  0  0  0  0  0  0  0  0
   -6.0176   28.7466    3.7789 N   0  0  0  0  0  0  0  0  0  0  0  0
   -6.4392   29.7335    4.5561 N   0  0  0  0  0  0  0  0  0  0  0  0
   -5.2731   26.4137    4.0026 C   0  0  0  0  0  0  0  0  0  0  0  0
   -5.6463   26.3318    2.5100 C   0  0  0  0  0  0  0  0  0  0  0  0
   -3.7388   26.2771    4.1194 C   0  0  0  0  0  0  0  0  0  0  0  0
   -5.9170   25.2370    4.7600 C   0  0  0  0  0  0  0  0  0  0  0  0
 10 11  1  0  0  0
 11 12  1  0  0  0
 11  1  1  0  0  0
  1  2  1  0  0  0
  1 13  1  0  0  0
 13 15  1  0  0  0
 15 16  1  0  0  0
 16 17  2  0  0  0
 17 18  1  0  0  0
 18 21  1  0  0  0
 21 22  1  0  0  0
 21 23  1  0  0  0
 21 24  1  0  0  0
 18 19  1  0  0  0
 19 20  2  0  0  0
  1  3  1  0  0  0
  3  4  1  0  0  0
  4  5  2  0  0  0
  5  6  1  0  0  0
  6  7  1  0  0  0
  6  8  2  0  0  0
  8  9  1  0  0  0
 20 16  1  0  0  0
  9  3  2  0  0  0
 13 14  1  0  0  0
M  END
> <minimizedAffinity>
-8.43325

$$$$
OCNT-2309342


 27 30  0  0  0  0  0  0  0  0999 V2000
   -4.2081   30.2904    6.5811 C   0  0  0  0  0  0  0  0  0  0  0  0
   -1.5537   30.1402    8.0743 C   0  0  0  0  0  0  0  0  0  0  0  0
   -2.8773   29.9110    8.8415 C   0  0  0  0  0  0  0  0  0  0  0  0
   -3.5687   30.9006    7.8476 C   0  0  0  0  0  0  0  0  0  0  0  0
   -2.1407   31.4997    7.6254 C   0  0  0  0  0  0  0  0  0  0  0  0
   -4.3451   31.8886    8.6386 N   0  0  0  0  0  0  0  0  0  0  0  0
   -5.4270   32.5573    7.8898 C   0  0  0  0  0  0  0  0  0  0  0  0
   -5.1843   34.0581    7.6583 C   0  0  0  0  0  0  0  0  0  0  0  0
   -5.0174   34.7855    8.8828 O   0  0  0  0  0  0  0  0  0  0  0  0
   -4.3467   34.0262    9.8987 C   0  0  0  0  0  0  0  0  0  0  0  0
   -3.4966   32.8733    9.3389 C   0  0  0  0  0  0  0  0  0  0  0  0
   -0.3659   30.1804    8.8913 O   0  0  0  0  0  0  0  0  0  0  0  0
    0.6192   29.2266    6.9369 C   0  0  0  0  0  0  0  0  0  0  0  0
    0.7260   29.3849    8.4396 C   0  0  0  0  0  0  0  0  0  0  0  0
   -4.6805   28.9201    6.7788 N   0  0  0  0  0  0  0  0  0  0  0  0
   -4.4063   28.5260    7.6719 H   0  0  0  0  0  0  0  0  0  0  0  0
   -4.6907   28.1035    5.6998 C   0  0  0  0  0  0  0  0  0  0  0  0
   -5.6467   27.9764    4.8082 N   0  0  0  0  0  0  0  0  0  0  0  0
   -5.1919   27.0607    3.8960 C   0  0  0  0  0  0  0  0  0  0  0  0
   -5.8111   26.5704    2.7342 C   0  0  0  0  0  0  0  0  0  0  0  0
   -5.1314   25.6315    1.9457 C   0  0  0  0  0  0  0  0  0  0  0  0
   -3.8583   25.1907    2.3079 C   0  0  0  0  0  0  0  0  0  0  0  0
   -3.2416   25.6736    3.4620 C   0  0  0  0  0  0  0  0  0  0  0  0
   -2.0177   25.2454    3.7953 F   0  0  0  0  0  0  0  0  0  0  0  0
   -3.9259   26.6044    4.2425 C   0  0  0  0  0  0  0  0  0  0  0  0
   -3.6365   27.2641    5.4125 N   0  0  0  0  0  0  0  0  0  0  0  0
   -2.4451   27.0760    6.2029 C   0  0  0  0  0  0  0  0  0  0  0  0
 13 14  1  0  0  0
 14 12  1  0  0  0
 12  2  1  0  0  0
  2  3  1  0  0  0
  3  4  1  0  0  0
  4  1  1  0  0  0
  1 15  1  0  0  0
 15 17  1  0  0  0
 17 18  2  0  0  0
 18 19  1  0  0  0
 19 20  2  0  0  0
 20 21  1  0  0  0
 21 22  2  0  0  0
 22 23  1  0  0  0
 23 24  1  0  0  0
 23 25  2  0  0  0
 25 26  1  0  0  0
 26 27  1  0  0  0
  4  6  1  0  0  0
  6  7  1  0  0  0
  7  8  1  0  0  0
  8  9  1  0  0  0
  9 10  1  0  0  0
 10 11  1  0  0  0
  4  5  1  0  0  0
  5  2  1  0  0  0
 26 17  1  0  0  0
 11  6  1  0  0  0
 25 19  1  0  0  0
 15 16  1  0  0  0
M  END
> <minimizedAffinity>
-8.36903

$$$$
OCNT-2309351


 29 32  0  0  0  0  0  0  0  0999 V2000
   -2.3441   26.9084    6.3241 C   0  0  0  0  0  0  0  0  0  0  0  0
   -2.3678   26.0188    7.1670 O   0  0  0  0  0  0  0  0  0  0  0  0
   -3.1790   26.9464    5.2371 N   0  0  0  0  0  0  0  0  0  0  0  0
   -3.1041   27.7070    4.5694 H   0  0  0  0  0  0  0  0  0  0  0  0
   -1.7336   29.3895    6.9224 C   0  0  0  0  0  0  0  0  0  0  0  0
   -0.5297   30.0672    6.9223 C   0  0  0  0  0  0  0  0  0  0  0  0
    0.4221   29.2533    6.3699 N   0  0  0  0  0  0  0  0  0  0  0  0
   -0.1425   28.0496    6.0539 C   0  0  0  0  0  0  0  0  0  0  0  0
   -1.4775   28.0718    6.4286 C   0  0  0  0  0  0  0  0  0  0  0  0
    1.3903   29.5053    6.2160 H   0  0  0  0  0  0  0  0  0  0  0  0
   -6.4103   30.7227    9.3605 C   0  0  0  0  0  0  0  0  0  0  0  0
   -5.2174   30.6853    8.4693 C   0  0  0  0  0  0  0  0  0  0  0  0
   -4.8861   31.5389    7.4396 C   0  0  0  0  0  0  0  0  0  0  0  0
   -3.6556   31.1764    6.8130 C   0  0  0  0  0  0  0  0  0  0  0  0
   -3.0897   30.0523    7.3747 C   0  0  0  0  0  0  0  0  0  0  0  0
   -4.0298   29.4747    8.6838 S   0  0  0  0  0  0  0  0  0  0  0  0
   -4.1114   25.8843    4.9106 C   0  0  0  0  0  0  0  0  0  0  0  0
   -5.3988   26.4420    4.1939 C   0  0  0  0  0  0  0  0  0  0  0  0
   -4.9416   27.7516    3.4588 C   0  0  0  0  0  0  0  0  0  0  0  0
   -5.9885   28.8620    3.4786 C   0  0  0  0  0  0  0  0  0  0  0  0
   -6.3424   29.2790    4.9062 C   0  0  0  0  0  0  0  0  0  0  0  0
   -6.2362   28.1408    5.9213 C   0  0  0  0  0  0  0  0  0  0  0  0
   -6.4708   26.7785    5.2736 C   0  0  0  0  0  0  0  0  0  0  0  0
   -5.8911   25.4047    3.2295 N   0  0  0  0  0  0  0  0  0  0  0  0
   -5.5657   25.6305    1.8025 C   0  0  0  0  0  0  0  0  0  0  0  0
   -4.6256   24.5728    1.1987 C   0  0  0  0  0  0  0  0  0  0  0  0
   -5.1317   23.2375    1.2988 O   0  0  0  0  0  0  0  0  0  0  0  0
   -5.9841   23.0457    2.4339 C   0  0  0  0  0  0  0  0  0  0  0  0
   -5.6549   23.9954    3.5988 C   0  0  0  0  0  0  0  0  0  0  0  0
 11 12  1  0  0  0
 12 13  2  0  0  0
 13 14  1  0  0  0
 14 15  2  0  0  0
 15  5  1  0  0  0
  5  6  2  0  0  0
  6  7  1  0  0  0
  7  8  1  0  0  0
  8  9  2  0  0  0
  9  1  1  0  0  0
  1  2  2  0  0  0
  1  3  1  0  0  0
  3 17  1  0  0  0
 17 18  1  0  0  0
 18 24  1  0  0  0
 24 25  1  0  0  0
 25 26  1  0  0  0
 26 27  1  0  0  0
 27 28  1  0  0  0
 28 29  1  0  0  0
 18 19  1  0  0  0
 19 20  1  0  0  0
 20 21  1  0  0  0
 21 22  1  0  0  0
 22 23  1  0  0  0
 15 16  1  0  0  0
 16 12  1  0  0  0
  9  5  1  0  0  0
 23 18  1  0  0  0
 29 24  1  0  0  0
  7 10  1  0  0  0
  3  4  1  0  0  0
M  END
> <minimizedAffinity>
-8.72243

$$$$
OCNT-2309368


 36 39  0  0  0  0  0  0  0  0999 V2000
   -2.9168   25.9836    6.1632 N   0  0  0  0  0  0  0  0  0  0  0  0
   -2.0404   27.0413    6.2778 C   0  0  0  0  0  0  0  0  0  0  0  0
   -1.7597   27.8561    5.4088 O   0  0  0  0  0  0  0  0  0  0  0  0
   -1.5097   27.0930    7.5519 N   0  0  0  0  0  0  0  0  0  0  0  0
   -3.2097   25.5715    7.0359 H   0  0  0  0  0  0  0  0  0  0  0  0
   -1.4282   26.2066    8.0244 H   0  0  0  0  0  0  0  0  0  0  0  0
   -6.9625   23.9316    4.2925 C   0  0  0  0  0  0  0  0  0  0  0  0
   -5.5910   24.5083    4.0583 C   0  0  0  0  0  0  0  0  0  0  0  0
   -4.8557   24.9883    5.1598 C   0  0  0  0  0  0  0  0  0  0  0  0
   -3.5778   25.5365    5.0020 C   0  0  0  0  0  0  0  0  0  0  0  0
   -3.0221   25.5862    3.7267 C   0  0  0  0  0  0  0  0  0  0  0  0
   -3.7368   25.1051    2.6248 C   0  0  0  0  0  0  0  0  0  0  0  0
   -5.0233   24.5615    2.7684 C   0  0  0  0  0  0  0  0  0  0  0  0
   -5.7253   24.0678    1.5769 C   0  0  0  0  0  0  0  0  0  0  0  0
   -6.3383   24.9558    0.6880 C   0  0  0  0  0  0  0  0  0  0  0  0
   -6.9918   24.4436   -0.4206 C   0  0  0  0  0  0  0  0  0  0  0  0
   -7.0730   23.1252   -0.7026 N   0  0  0  0  0  0  0  0  0  0  0  0
   -6.4659   22.2839    0.1599 C   0  0  0  0  0  0  0  0  0  0  0  0
   -5.7923   22.6989    1.2971 C   0  0  0  0  0  0  0  0  0  0  0  0
   -0.4966   28.0710    7.8868 C   0  0  0  0  0  0  0  0  0  0  0  0
   -1.1221   29.3424    8.4063 C   0  0  0  0  0  0  0  0  0  0  0  0
   -0.3116   30.3769    8.8882 C   0  0  0  0  0  0  0  0  0  0  0  0
   -0.8833   31.5394    9.3953 C   0  0  0  0  0  0  0  0  0  0  0  0
   -2.2716   31.6750    9.4344 C   0  0  0  0  0  0  0  0  0  0  0  0
   -3.1211   30.6580    8.9556 C   0  0  0  0  0  0  0  0  0  0  0  0
   -2.5194   29.4886    8.4527 C   0  0  0  0  0  0  0  0  0  0  0  0
   -4.6366   30.8251    9.0497 C   0  0  0  0  0  0  0  0  0  0  0  0
   -5.0963   32.2834    9.1284 C   0  0  0  0  0  0  0  0  0  0  0  0
   -5.1349   30.0634   10.1812 N   0  0  0  0  0  0  0  0  0  0  0  0
   -5.9528   29.0322    9.7971 C   0  0  0  0  0  0  0  0  0  0  0  0
   -6.3506   28.1444   10.5284 O   0  0  0  0  0  0  0  0  0  0  0  0
   -6.2053   29.1459    8.4763 N   0  0  0  0  0  0  0  0  0  0  0  0
   -5.4471   30.1327    7.9272 C   0  0  0  0  0  0  0  0  0  0  0  0
   -5.4126   30.3865    6.7307 O   0  0  0  0  0  0  0  0  0  0  0  0
   -4.6956   30.0415   11.0915 H   0  0  0  0  0  0  0  0  0  0  0  0
   -6.7628   28.4948    7.9525 H   0  0  0  0  0  0  0  0  0  0  0  0
  7  8  1  0  0  0
  8  9  1  0  0  0
  9 10  2  0  0  0
 10  1  1  0  0  0
  1  2  1  0  0  0
  2  3  2  0  0  0
  2  4  1  0  0  0
  4 20  1  0  0  0
 20 21  1  0  0  0
 21 22  1  0  0  0
 22 23  2  0  0  0
 23 24  1  0  0  0
 24 25  2  0  0  0
 25 27  1  0  0  0
 27 28  1  0  0  0
 27 29  1  0  0  0
 29 30  1  0  0  0
 30 31  2  0  0  0
 30 32  1  0  0  0
 32 33  1  0  0  0
 33 34  2  0  0  0
 25 26  1  0  0  0
 10 11  1  0  0  0
 11 12  2  0  0  0
 12 13  1  0  0  0
 13 14  1  0  0  0
 14 15  2  0  0  0
 15 16  1  0  0  0
 16 17  2  0  0  0
 17 18  1  0  0  0
 18 19  2  0  0  0
 13  8  2  0  0  0
 19 14  1  0  0  0
 26 21  2  0  0  0
 33 27  1  0  0  0
  1  5  1  0  0  0
  4  6  1  0  0  0
 29 35  1  0  0  0
 32 36  1  0  0  0
M  END
> <minimizedAffinity>
-11.34965

$$$$
OCNT-2309371


 23 25  0  0  0  0  0  0  0  0999 V2000
   -3.5644   29.0218    6.0879 N   0  0  0  0  0  0  0  0  0  0  0  0
   -3.6398   29.4676    7.3925 C   0  0  0  0  0  0  0  0  0  0  0  0
   -4.3265   29.0177    8.2989 O   0  0  0  0  0  0  0  0  0  0  0  0
   -2.9853   29.5838    5.4819 H   0  0  0  0  0  0  0  0  0  0  0  0
   -5.5115   28.1391    4.9265 C   0  0  0  0  0  0  0  0  0  0  0  0
   -6.1508   27.0318    4.3649 C   0  0  0  0  0  0  0  0  0  0  0  0
   -5.6355   25.7863    4.3224 N   0  0  0  0  0  0  0  0  0  0  0  0
   -4.4182   25.6246    4.8731 C   0  0  0  0  0  0  0  0  0  0  0  0
   -3.6952   26.6482    5.4630 C   0  0  0  0  0  0  0  0  0  0  0  0
   -4.2431   27.9307    5.4994 C   0  0  0  0  0  0  0  0  0  0  0  0
   -7.1643   29.6328    6.0951 C   0  0  0  0  0  0  0  0  0  0  0  0
   -6.2278   29.4659    4.9067 C   0  0  0  0  0  0  0  0  0  0  0  0
   -2.7622   30.6823    7.6471 C   0  0  0  0  0  0  0  0  0  0  0  0
   -1.5202   30.8564    6.7670 C   0  0  0  0  0  0  0  0  0  0  0  0
   -1.3294   30.4651    8.2066 C   0  0  0  0  0  0  0  0  0  0  0  0
   -0.8464   29.0607    8.4892 C   0  0  0  0  0  0  0  0  0  0  0  0
   -0.7134   31.4913    9.1301 C   0  0  0  0  0  0  0  0  0  0  0  0
   -3.5435   31.9291    8.0758 C   0  0  0  0  0  0  0  0  0  0  0  0
   -3.6064   32.3524    9.4158 C   0  0  0  0  0  0  0  0  0  0  0  0
   -4.3066   33.5047    9.7842 C   0  0  0  0  0  0  0  0  0  0  0  0
   -4.9547   34.2658    8.8160 C   0  0  0  0  0  0  0  0  0  0  0  0
   -4.9000   33.8773    7.4813 C   0  0  0  0  0  0  0  0  0  0  0  0
   -4.1996   32.7245    7.1188 C   0  0  0  0  0  0  0  0  0  0  0  0
 11 12  1  0  0  0
 12  5  1  0  0  0
  5  6  2  0  0  0
  6  7  1  0  0  0
  7  8  2  0  0  0
  8  9  1  0  0  0
  9 10  2  0  0  0
 10  1  1  0  0  0
  1  2  1  0  0  0
  2  3  2  0  0  0
  2 13  1  0  0  0
 13 18  1  0  0  0
 18 19  2  0  0  0
 19 20  1  0  0  0
 20 21  2  0  0  0
 21 22  1  0  0  0
 22 23  2  0  0  0
 13 14  1  0  0  0
 14 15  1  0  0  0
 15 16  1  0  0  0
 15 17  1  0  0  0
 10  5  1  0  0  0
 15 13  1  0  0  0
 23 18  1  0  0  0
  1  4  1  0  0  0
M  END
> <minimizedAffinity>
-8.69301

$$$$
OCNT-2309372


 25 27  0  0  0  0  0  0  0  0999 V2000
   -4.3401   28.8073    5.8445 N   0  0  0  0  0  0  0  0  0  0  0  0
   -3.5566   27.5291    6.0360 C   0  0  0  0  0  0  0  0  0  0  0  0
   -3.8176   26.5071    4.9150 C   0  0  0  0  0  0  0  0  0  0  0  0
   -5.2154   26.0498    4.8965 N   0  0  0  0  0  0  0  0  0  0  0  0
   -6.1533   27.1282    5.2749 C   0  0  0  0  0  0  0  0  0  0  0  0
   -5.6064   28.5606    5.0366 C   0  0  0  0  0  0  0  0  0  0  0  0
   -6.7230   29.5840    5.2187 C   0  0  0  0  0  0  0  0  0  0  0  0
   -5.6247   25.2875    3.7036 C   0  0  0  0  0  0  0  0  0  0  0  0
   -5.6452   26.0880    2.3858 C   0  0  0  0  0  0  0  0  0  0  0  0
   -5.5706   25.1754    1.1637 C   0  0  0  0  0  0  0  0  0  0  0  0
   -6.1713   23.9187    1.4454 O   0  0  0  0  0  0  0  0  0  0  0  0
   -5.4192   23.1536    2.3890 C   0  0  0  0  0  0  0  0  0  0  0  0
   -4.8150   23.9995    3.5106 C   0  0  0  0  0  0  0  0  0  0  0  0
   -4.4671   29.7418    7.2803 S   0  0  0  0  0  0  0  0  0  0  0  0
   -4.9619   31.0554    6.9156 O   0  0  0  0  0  0  0  0  0  0  0  0
   -5.1779   28.9562    8.2665 O   0  0  0  0  0  0  0  0  0  0  0  0
   -2.4199   30.7011    8.9202 C   0  0  0  0  0  0  0  0  0  0  0  0
   -1.0653   30.8659    9.2325 C   0  0  0  0  0  0  0  0  0  0  0  0
   -0.0731   30.3535    8.3920 C   0  0  0  0  0  0  0  0  0  0  0  0
   -0.4175   29.6612    7.2273 C   0  0  0  0  0  0  0  0  0  0  0  0
    0.6463   29.0824    6.3425 C   0  0  0  0  0  0  0  0  0  0  0  0
   -1.7717   29.4661    6.9316 C   0  0  0  0  0  0  0  0  0  0  0  0
   -2.7712   29.9798    7.7769 C   0  0  0  0  0  0  0  0  0  0  0  0
   -3.5989   32.5427    9.7498 C   0  0  0  0  0  0  0  0  0  0  0  0
   -3.3868   31.1324    9.7822 O   0  0  0  0  0  0  0  0  0  0  0  0
 24 25  1  0  0  0
 25 17  1  0  0  0
 17 18  1  0  0  0
 18 19  2  0  0  0
 19 20  1  0  0  0
 20 21  1  0  0  0
 20 22  2  0  0  0
 22 23  1  0  0  0
 23 14  1  0  0  0
 14 15  2  0  0  0
 14 16  2  0  0  0
 14  1  1  0  0  0
  1  2  1  0  0  0
  2  3  1  0  0  0
  3  4  1  0  0  0
  4  8  1  0  0  0
  8  9  1  0  0  0
  9 10  1  0  0  0
 10 11  1  0  0  0
 11 12  1  0  0  0
 12 13  1  0  0  0
  4  5  1  0  0  0
  5  6  1  0  0  0
  6  7  1  0  0  0
 23 17  2  0  0  0
  6  1  1  0  0  0
 13  8  1  0  0  0
M  END
> <minimizedAffinity>
-8.66961

$$$$
OCNT-2309377


 27 29  0  0  0  0  0  0  0  0999 V2000
   -0.6226   27.3357    6.6529 C   0  0  0  0  0  0  0  0  0  0  0  0
   -0.5419   27.1197    5.1314 C   0  0  0  0  0  0  0  0  0  0  0  0
   -1.5553   26.0790    4.6651 C   0  0  0  0  0  0  0  0  0  0  0  0
   -2.9281   26.4467    5.0154 N   0  0  0  0  0  0  0  0  0  0  0  0
   -4.0572   25.8656    4.4445 C   0  0  0  0  0  0  0  0  0  0  0  0
   -5.1990   26.2124    4.7469 O   0  0  0  0  0  0  0  0  0  0  0  0
   -3.1040   27.4626    6.0540 C   0  0  0  0  0  0  0  0  0  0  0  0
   -2.0755   27.2957    7.1691 C   0  0  0  0  0  0  0  0  0  0  0  0
    0.1767   28.5680    7.1333 C   0  0  0  0  0  0  0  0  0  0  0  0
   -2.8868   33.0710    8.6476 N   0  0  0  0  0  0  0  0  0  0  0  0
   -2.1142   31.9618    8.3146 C   0  0  0  0  0  0  0  0  0  0  0  0
   -1.4520   31.2417    9.2962 C   0  0  0  0  0  0  0  0  0  0  0  0
   -0.6980   30.1304    8.9240 C   0  0  0  0  0  0  0  0  0  0  0  0
   -0.6230   29.7624    7.5801 C   0  0  0  0  0  0  0  0  0  0  0  0
   -1.3432   30.5383    6.6788 C   0  0  0  0  0  0  0  0  0  0  0  0
   -2.0774   31.6237    7.0172 N   0  0  0  0  0  0  0  0  0  0  0  0
   -2.3469   33.7545    9.1644 H   0  0  0  0  0  0  0  0  0  0  0  0
   -3.2368   33.4522    7.7717 H   0  0  0  0  0  0  0  0  0  0  0  0
   -3.8100   24.7834    3.4057 C   0  0  0  0  0  0  0  0  0  0  0  0
   -4.2709   25.2178    2.0146 C   0  0  0  0  0  0  0  0  0  0  0  0
   -5.2433   24.2327    1.4178 C   0  0  0  0  0  0  0  0  0  0  0  0
   -5.2083   22.8800    1.7809 C   0  0  0  0  0  0  0  0  0  0  0  0
   -6.1226   21.9771    1.2313 C   0  0  0  0  0  0  0  0  0  0  0  0
   -7.0815   22.4160    0.3179 C   0  0  0  0  0  0  0  0  0  0  0  0
   -7.1280   23.7600   -0.0456 C   0  0  0  0  0  0  0  0  0  0  0  0
   -6.2147   24.6543    0.5052 C   0  0  0  0  0  0  0  0  0  0  0  0
   -6.2826   25.9464    0.1531 F   0  0  0  0  0  0  0  0  0  0  0  0
 10 11  1  0  0  0
 11 12  2  0  0  0
 12 13  1  0  0  0
 13 14  2  0  0  0
 14  9  1  0  0  0
  9  1  1  0  0  0
  1  2  1  0  0  0
  2  3  1  0  0  0
  3  4  1  0  0  0
  4  5  1  0  0  0
  5  6  2  0  0  0
  5 19  1  0  0  0
 19 20  1  0  0  0
 20 21  1  0  0  0
 21 22  2  0  0  0
 22 23  1  0  0  0
 23 24  2  0  0  0
 24 25  1  0  0  0
 25 26  2  0  0  0
 26 27  1  0  0  0
  4  7  1  0  0  0
  7  8  1  0  0  0
 14 15  1  0  0  0
 15 16  2  0  0  0
 16 11  1  0  0  0
  8  1  1  0  0  0
 26 21  1  0  0  0
 10 17  1  0  0  0
 10 18  1  0  0  0
M  END
> <minimizedAffinity>
-9.69084

$$$$
OCNT-2309379


 25 28  0  0  0  0  0  0  0  0999 V2000
   -5.3520   27.9301    4.3658 C   0  0  0  0  0  0  0  0  0  0  0  0
   -5.4123   26.4295    4.7168 C   0  0  0  0  0  0  0  0  0  0  0  0
   -5.5276   26.1833    3.2914 N   0  0  0  0  0  0  0  0  0  0  0  0
   -5.7838   25.0849    2.5237 C   0  0  0  0  0  0  0  0  0  0  0  0
   -6.0851   25.2110    1.3316 O   0  0  0  0  0  0  0  0  0  0  0  0
   -5.8599   27.5637    2.9608 C   0  0  0  0  0  0  0  0  0  0  0  0
   -5.7499   23.6880    3.1428 C   0  0  0  0  0  0  0  0  0  0  0  0
   -5.3181   22.6547    2.0948 C   0  0  0  0  0  0  0  0  0  0  0  0
   -5.7540   21.2555    2.4912 C   0  0  0  0  0  0  0  0  0  0  0  0
   -7.2526   21.1836    2.7590 C   0  0  0  0  0  0  0  0  0  0  0  0
   -7.8524   22.4481    3.0381 O   0  0  0  0  0  0  0  0  0  0  0  0
   -7.0650   23.3257    3.8632 C   0  0  0  0  0  0  0  0  0  0  0  0
   -7.0144   22.7668    5.2840 C   0  0  0  0  0  0  0  0  0  0  0  0
   -8.2303   22.6470    5.9854 C   0  0  0  0  0  0  0  0  0  0  0  0
   -8.2714   22.1428    7.2865 C   0  0  0  0  0  0  0  0  0  0  0  0
   -7.0955   21.7442    7.9128 C   0  0  0  0  0  0  0  0  0  0  0  0
   -5.8834   21.8468    7.2357 C   0  0  0  0  0  0  0  0  0  0  0  0
   -5.8422   22.3515    5.9317 C   0  0  0  0  0  0  0  0  0  0  0  0
   -6.1193   28.9413    5.2103 C   0  0  0  0  0  0  0  0  0  0  0  0
   -6.1499   28.9545   10.2323 C   0  0  0  0  0  0  0  0  0  0  0  0
   -5.7528   29.0042    8.8466 N   0  0  0  0  0  0  0  0  0  0  0  0
   -6.5637   28.9074    7.7539 C   0  0  0  0  0  0  0  0  0  0  0  0
   -5.7422   28.9921    6.6481 C   0  0  0  0  0  0  0  0  0  0  0  0
   -4.4510   29.1676    7.2000 C   0  0  0  0  0  0  0  0  0  0  0  0
   -4.4552   29.1627    8.5340 N   0  0  0  0  0  0  0  0  0  0  0  0
 20 21  1  0  0  0
 21 22  1  0  0  0
 22 23  2  0  0  0
 23 19  1  0  0  0
 19  1  1  0  0  0
  1  2  1  0  0  0
  2  3  1  0  0  0
  3  4  1  0  0  0
  4  5  2  0  0  0
  4  7  1  0  0  0
  7  8  1  0  0  0
  8  9  1  0  0  0
  9 10  1  0  0  0
 10 11  1  0  0  0
 11 12  1  0  0  0
 12 13  1  0  0  0
 13 14  2  0  0  0
 14 15  1  0  0  0
 15 16  2  0  0  0
 16 17  1  0  0  0
 17 18  2  0  0  0
  3  6  1  0  0  0
 23 24  1  0  0  0
 24 25  2  0  0  0
 25 21  1  0  0  0
  6  1  1  0  0  0
 12  7  1  0  0  0
 18 13  1  0  0  0
M  END
> <minimizedAffinity>
-9.18367

$$$$
OCNT-2309390


 23 25  0  0  0  0  0  0  0  0999 V2000
   -4.5140   28.9453    6.0048 N   0  0  0  0  0  0  0  0  0  0  0  0
   -3.3337   28.9875    6.7284 C   0  0  0  0  0  0  0  0  0  0  0  0
   -2.7214   27.7790    6.4574 C   0  0  0  0  0  0  0  0  0  0  0  0
   -3.4793   27.0127    5.6155 N   0  0  0  0  0  0  0  0  0  0  0  0
   -4.5386   27.7388    5.3524 C   0  0  0  0  0  0  0  0  0  0  0  0
   -2.8968   30.0800    7.5826 C   0  0  0  0  0  0  0  0  0  0  0  0
   -2.0982   31.1030    7.0596 C   0  0  0  0  0  0  0  0  0  0  0  0
   -1.6680   32.1479    7.8796 C   0  0  0  0  0  0  0  0  0  0  0  0
   -2.0379   32.1775    9.2236 C   0  0  0  0  0  0  0  0  0  0  0  0
   -2.8418   31.1661    9.7479 C   0  0  0  0  0  0  0  0  0  0  0  0
   -3.2732   30.1211    8.9291 C   0  0  0  0  0  0  0  0  0  0  0  0
   -5.5567   29.9509    6.0292 C   0  0  0  0  0  0  0  0  0  0  0  0
   -7.7634   29.2409    6.3742 F   0  0  0  0  0  0  0  0  0  0  0  0
   -6.6577   29.6819    7.0297 C   0  0  0  0  0  0  0  0  0  0  0  0
   -6.3338   28.7287    7.9276 F   0  0  0  0  0  0  0  0  0  0  0  0
   -7.0298   30.7892    7.7024 F   0  0  0  0  0  0  0  0  0  0  0  0
   -5.8288   27.2215    4.3220 S   0  0  0  0  0  0  0  0  0  0  0  0
   -4.8461   26.5620    2.9331 C   0  0  0  0  0  0  0  0  0  0  0  0
   -5.5709   25.4484    2.2359 C   0  0  0  0  0  0  0  0  0  0  0  0
   -5.8550   25.4249    0.9475 N   0  0  0  0  0  0  0  0  0  0  0  0
   -6.5397   24.2678    0.6374 C   0  0  0  0  0  0  0  0  0  0  0  0
   -6.7671   23.4112    1.6909 C   0  0  0  0  0  0  0  0  0  0  0  0
   -6.1037   24.0703    3.1258 S   0  0  0  0  0  0  0  0  0  0  0  0
 13 14  1  0  0  0
 14 15  1  0  0  0
 14 16  1  0  0  0
 14 12  1  0  0  0
 12  1  1  0  0  0
  1  2  1  0  0  0
  2  6  1  0  0  0
  6  7  2  0  0  0
  7  8  1  0  0  0
  8  9  2  0  0  0
  9 10  1  0  0  0
 10 11  2  0  0  0
  2  3  2  0  0  0
  3  4  1  0  0  0
  4  5  2  0  0  0
  5 17  1  0  0  0
 17 18  1  0  0  0
 18 19  1  0  0  0
 19 20  2  0  0  0
 20 21  1  0  0  0
 21 22  2  0  0  0
 22 23  1  0  0  0
  5  1  1  0  0  0
 23 19  1  0  0  0
 11  6  1  0  0  0
M  END
> <minimizedAffinity>
-7.78123

$$$$
OCNT-2309398


 31 34  0  0  0  0  0  0  0  0999 V2000
   -4.2026   25.9319    2.9400 C   0  0  0  0  0  0  0  0  0  0  0  0
   -5.0718   24.7173    2.6650 C   0  0  0  0  0  0  0  0  0  0  0  0
   -5.2208   23.5717    3.4320 C   0  0  0  0  0  0  0  0  0  0  0  0
   -6.1055   22.7372    2.8069 N   0  0  0  0  0  0  0  0  0  0  0  0
   -6.5179   23.2874    1.6177 C   0  0  0  0  0  0  0  0  0  0  0  0
   -7.3953   22.7836    0.6499 C   0  0  0  0  0  0  0  0  0  0  0  0
   -7.6388   23.5717   -0.4780 C   0  0  0  0  0  0  0  0  0  0  0  0
   -7.0292   24.8141   -0.6285 C   0  0  0  0  0  0  0  0  0  0  0  0
   -6.1564   25.3039    0.3504 C   0  0  0  0  0  0  0  0  0  0  0  0
   -5.8920   24.5288    1.4995 C   0  0  0  0  0  0  0  0  0  0  0  0
   -6.4154   21.8430    3.1620 H   0  0  0  0  0  0  0  0  0  0  0  0
   -6.5878   28.8293    5.1627 C   0  0  0  0  0  0  0  0  0  0  0  0
   -6.1315   29.1045    3.8748 C   0  0  0  0  0  0  0  0  0  0  0  0
   -5.3689   28.1665    3.1735 C   0  0  0  0  0  0  0  0  0  0  0  0
   -5.0485   26.9189    3.7409 C   0  0  0  0  0  0  0  0  0  0  0  0
   -5.5068   26.6604    5.0412 C   0  0  0  0  0  0  0  0  0  0  0  0
   -6.2696   27.6042    5.7443 C   0  0  0  0  0  0  0  0  0  0  0  0
   -6.9398   30.2373    7.0444 C   0  0  0  0  0  0  0  0  0  0  0  0
   -7.3224   29.8292    5.7375 O   0  0  0  0  0  0  0  0  0  0  0  0
   -2.8149   25.5443    3.5070 C   0  0  0  0  0  0  0  0  0  0  0  0
   -2.4455   26.2292    4.7381 N   0  0  0  0  0  0  0  0  0  0  0  0
   -1.1444   26.3925    5.1252 C   0  0  0  0  0  0  0  0  0  0  0  0
   -0.1616   26.0972    4.4638 O   0  0  0  0  0  0  0  0  0  0  0  0
   -3.1741   26.3723    5.4269 H   0  0  0  0  0  0  0  0  0  0  0  0
   -0.9885   26.9823    6.4746 C   0  0  0  0  0  0  0  0  0  0  0  0
   -2.1767   27.5221    7.2427 C   0  0  0  0  0  0  0  0  0  0  0  0
   -1.1805   28.4780    6.6330 C   0  0  0  0  0  0  0  0  0  0  0  0
   -0.2484   29.2785    7.4599 C   0  0  0  0  0  0  0  0  0  0  0  0
    0.9895   29.2888    6.9218 F   0  0  0  0  0  0  0  0  0  0  0  0
   -0.6788   30.5582    7.5435 F   0  0  0  0  0  0  0  0  0  0  0  0
   -0.1528   28.7914    8.7188 F   0  0  0  0  0  0  0  0  0  0  0  0
 18 19  1  0  0  0
 19 12  1  0  0  0
 12 13  1  0  0  0
 13 14  2  0  0  0
 14 15  1  0  0  0
 15  1  1  0  0  0
  1 20  1  0  0  0
 20 21  1  0  0  0
 21 22  1  0  0  0
 22 23  2  0  0  0
 22 25  1  0  0  0
 25 26  1  0  0  0
 26 27  1  0  0  0
 27 28  1  0  0  0
 28 29  1  0  0  0
 28 30  1  0  0  0
 28 31  1  0  0  0
  1  2  1  0  0  0
  2  3  2  0  0  0
  3  4  1  0  0  0
  4  5  1  0  0  0
  5  6  2  0  0  0
  6  7  1  0  0  0
  7  8  2  0  0  0
  8  9  1  0  0  0
  9 10  2  0  0  0
 15 16  2  0  0  0
 16 17  1  0  0  0
 17 12  2  0  0  0
 27 25  1  0  0  0
 10  2  1  0  0  0
 10  5  1  0  0  0
 21 24  1  0  0  0
  4 11  1  0  0  0
M  END
> <minimizedAffinity>
-10.45066

$$$$
OCNT-2309402


 26 29  0  0  0  0  0  0  0  0999 V2000
   -6.5621   28.5077    7.0499 O   0  0  0  0  0  0  0  0  0  0  0  0
   -5.5845   28.4771    6.3056 C   0  0  0  0  0  0  0  0  0  0  0  0
   -5.4519   27.5238    5.2893 N   0  0  0  0  0  0  0  0  0  0  0  0
   -6.4972   26.5030    5.2162 C   0  0  0  0  0  0  0  0  0  0  0  0
   -6.0630   25.2867    4.3779 C   0  0  0  0  0  0  0  0  0  0  0  0
   -5.5885   25.6771    3.0244 N   0  0  0  0  0  0  0  0  0  0  0  0
   -4.4773   26.6448    3.1709 C   0  0  0  0  0  0  0  0  0  0  0  0
   -4.8911   27.8852    3.9829 C   0  0  0  0  0  0  0  0  0  0  0  0
   -4.5032   29.4305    6.4741 C   0  0  0  0  0  0  0  0  0  0  0  0
   -4.6092   30.7745    6.1741 C   0  0  0  0  0  0  0  0  0  0  0  0
   -3.4475   31.4266    6.4314 O   0  0  0  0  0  0  0  0  0  0  0  0
   -2.5877   30.5112    6.9541 C   0  0  0  0  0  0  0  0  0  0  0  0
   -1.2874   30.7777    7.3770 C   0  0  0  0  0  0  0  0  0  0  0  0
   -0.5709   29.7031    7.9130 C   0  0  0  0  0  0  0  0  0  0  0  0
   -1.1448   28.4341    8.0184 C   0  0  0  0  0  0  0  0  0  0  0  0
   -2.4560   28.1968    7.5816 C   0  0  0  0  0  0  0  0  0  0  0  0
   -3.1926   29.2606    7.0224 C   0  0  0  0  0  0  0  0  0  0  0  0
   -5.1275   24.4973    2.2684 C   0  0  0  0  0  0  0  0  0  0  0  0
   -6.0140   24.1606    1.1044 C   0  0  0  0  0  0  0  0  0  0  0  0
   -6.3745   25.0042    0.1537 N   0  0  0  0  0  0  0  0  0  0  0  0
   -7.1721   24.2934   -0.7030 C   0  0  0  0  0  0  0  0  0  0  0  0
   -7.3089   22.9976   -0.2731 C   0  0  0  0  0  0  0  0  0  0  0  0
   -6.5724   22.9214    0.8817 N   0  0  0  0  0  0  0  0  0  0  0  0
   -6.3974   21.7320    1.6912 C   0  0  0  0  0  0  0  0  0  0  0  0
   -5.7592   20.7569    0.9923 F   0  0  0  0  0  0  0  0  0  0  0  0
   -7.6037   21.2132    2.0557 F   0  0  0  0  0  0  0  0  0  0  0  0
  1  2  2  0  0  0
  2  9  1  0  0  0
  9 10  2  0  0  0
 10 11  1  0  0  0
 11 12  1  0  0  0
 12 13  2  0  0  0
 13 14  1  0  0  0
 14 15  2  0  0  0
 15 16  1  0  0  0
 16 17  2  0  0  0
  2  3  1  0  0  0
  3  4  1  0  0  0
  4  5  1  0  0  0
  5  6  1  0  0  0
  6 18  1  0  0  0
 18 19  1  0  0  0
 19 20  2  0  0  0
 20 21  1  0  0  0
 21 22  2  0  0  0
 22 23  1  0  0  0
 23 24  1  0  0  0
 24 25  1  0  0  0
 24 26  1  0  0  0
  6  7  1  0  0  0
  7  8  1  0  0  0
 17  9  1  0  0  0
  8  3  1  0  0  0
 17 12  1  0  0  0
 23 19  1  0  0  0
M  END
> <minimizedAffinity>
-8.93344

$$$$
OCNT-2309424


 22 24  0  0  0  0  0  0  0  0999 V2000
   -3.0679   27.0979    5.7062 C   0  0  0  0  0  0  0  0  0  0  0  0
   -3.7456   26.6750    4.4970 N   0  0  0  0  0  0  0  0  0  0  0  0
   -3.2871   25.8462    3.5202 C   0  0  0  0  0  0  0  0  0  0  0  0
   -4.3219   25.8013    2.6078 C   0  0  0  0  0  0  0  0  0  0  0  0
   -5.3369   26.6147    3.0508 N   0  0  0  0  0  0  0  0  0  0  0  0
   -4.9766   27.1350    4.2151 N   0  0  0  0  0  0  0  0  0  0  0  0
   -4.4234   25.0739    1.3090 C   0  0  0  0  0  0  0  0  0  0  0  0
   -5.7648   24.5936    0.9745 N   0  0  0  0  0  0  0  0  0  0  0  0
   -6.3501   25.1193   -0.2510 C   0  0  0  0  0  0  0  0  0  0  0  0
   -7.6116   24.2792   -0.3963 C   0  0  0  0  0  0  0  0  0  0  0  0
   -7.3158   22.9788    0.3473 C   0  0  0  0  0  0  0  0  0  0  0  0
   -5.9057   23.1430    0.8989 C   0  0  0  0  0  0  0  0  0  0  0  0
   -3.6379   28.4208    6.2339 C   0  0  0  0  0  0  0  0  0  0  0  0
   -4.8187   28.1834    7.0115 O   0  0  0  0  0  0  0  0  0  0  0  0
   -5.4490   27.7154    6.4264 H   0  0  0  0  0  0  0  0  0  0  0  0
   -3.5498   31.4242    6.4924 C   0  0  0  0  0  0  0  0  0  0  0  0
   -2.5507   30.5390    7.1880 C   0  0  0  0  0  0  0  0  0  0  0  0
   -1.5536   31.1407    7.9748 C   0  0  0  0  0  0  0  0  0  0  0  0
   -0.6102   30.3688    8.6514 C   0  0  0  0  0  0  0  0  0  0  0  0
   -0.6518   28.9832    8.5561 C   0  0  0  0  0  0  0  0  0  0  0  0
   -1.6380   28.3698    7.7846 C   0  0  0  0  0  0  0  0  0  0  0  0
   -2.6041   29.1290    7.0963 C   0  0  0  0  0  0  0  0  0  0  0  0
 16 17  1  0  0  0
 17 18  2  0  0  0
 18 19  1  0  0  0
 19 20  2  0  0  0
 20 21  1  0  0  0
 21 22  2  0  0  0
 22 13  1  0  0  0
 13 14  1  0  0  0
 13  1  1  0  0  0
  1  2  1  0  0  0
  2  3  1  0  0  0
  3  4  2  0  0  0
  4  7  1  0  0  0
  7  8  1  0  0  0
  8  9  1  0  0  0
  9 10  1  0  0  0
 10 11  1  0  0  0
 11 12  1  0  0  0
  4  5  1  0  0  0
  5  6  2  0  0  0
 22 17  1  0  0  0
  6  2  1  0  0  0
 12  8  1  0  0  0
 14 15  1  0  0  0
M  END
> <minimizedAffinity>
-8.18947

$$$$
OCNT-2309429


 28 31  0  0  0  0  0  0  0  0999 V2000
   -7.2985   23.3534   -0.7034 C   0  0  0  0  0  0  0  0  0  0  0  0
   -6.7280   23.7321    0.6253 C   0  0  0  0  0  0  0  0  0  0  0  0
   -6.8342   23.0594    1.8358 C   0  0  0  0  0  0  0  0  0  0  0  0
   -7.5740   21.7738    2.0385 C   0  0  0  0  0  0  0  0  0  0  0  0
   -6.1334   23.7607    2.8986 C   0  0  0  0  0  0  0  0  0  0  0  0
   -5.9441   23.5010    4.2714 C   0  0  0  0  0  0  0  0  0  0  0  0
   -5.2108   24.3720    5.0031 N   0  0  0  0  0  0  0  0  0  0  0  0
   -4.6885   25.4677    4.4208 C   0  0  0  0  0  0  0  0  0  0  0  0
   -4.8136   25.7975    3.1308 N   0  0  0  0  0  0  0  0  0  0  0  0
   -5.5396   24.9167    2.4259 C   0  0  0  0  0  0  0  0  0  0  0  0
   -5.8076   25.1654    0.7669 S   0  0  0  0  0  0  0  0  0  0  0  0
   -3.9077   26.3741    5.2761 C   0  0  0  0  0  0  0  0  0  0  0  0
   -4.3656   27.6506    5.6406 C   0  0  0  0  0  0  0  0  0  0  0  0
   -3.5921   28.4841    6.4488 C   0  0  0  0  0  0  0  0  0  0  0  0
   -2.3642   28.0205    6.8832 C   0  0  0  0  0  0  0  0  0  0  0  0
   -1.8759   26.8050    6.5688 N   0  0  0  0  0  0  0  0  0  0  0  0
   -2.6546   26.0182    5.7796 C   0  0  0  0  0  0  0  0  0  0  0  0
   -6.4677   22.3490    4.8886 N   0  0  0  0  0  0  0  0  0  0  0  0
   -5.6636   21.9918    6.0779 C   0  0  0  0  0  0  0  0  0  0  0  0
   -6.5815   22.2039    7.2747 C   0  0  0  0  0  0  0  0  0  0  0  0
   -7.9462   21.8918    6.6887 C   0  0  0  0  0  0  0  0  0  0  0  0
   -7.8731   22.5490    5.3239 C   0  0  0  0  0  0  0  0  0  0  0  0
   -9.2765   22.5114    7.6796 S   0  0  0  0  0  0  0  0  0  0  0  0
   -9.4201   24.0959    7.1489 N   0  0  0  0  0  0  0  0  0  0  0  0
   -8.8795   22.6019    9.0636 O   0  0  0  0  0  0  0  0  0  0  0  0
  -10.5045   21.8678    7.2731 O   0  0  0  0  0  0  0  0  0  0  0  0
  -10.3371   24.2294    6.7145 H   0  0  0  0  0  0  0  0  0  0  0  0
   -9.2584   24.7396    7.9286 H   0  0  0  0  0  0  0  0  0  0  0  0
  1  2  1  0  0  0
  2  3  2  0  0  0
  3  4  1  0  0  0
  3  5  1  0  0  0
  5  6  2  0  0  0
  6 18  1  0  0  0
 18 19  1  0  0  0
 19 20  1  0  0  0
 20 21  1  0  0  0
 21 23  1  0  0  0
 23 24  1  0  0  0
 23 25  2  0  0  0
 23 26  2  0  0  0
 21 22  1  0  0  0
  6  7  1  0  0  0
  7  8  2  0  0  0
  8 12  1  0  0  0
 12 13  1  0  0  0
 13 14  2  0  0  0
 14 15  1  0  0  0
 15 16  2  0  0  0
 16 17  1  0  0  0
  8  9  1  0  0  0
  9 10  2  0  0  0
 10 11  1  0  0  0
 11  2  1  0  0  0
 10  5  1  0  0  0
 22 18  1  0  0  0
 17 12  2  0  0  0
 24 27  1  0  0  0
 24 28  1  0  0  0
M  END
> <minimizedAffinity>
-8.52761

$$$$
OCNT-2309434


 26 29  0  0  0  0  0  0  0  0999 V2000
   -5.0111   33.3399    8.3091 C   0  0  0  0  0  0  0  0  0  0  0  0
   -4.4042   32.0110    8.2483 N   0  0  0  0  0  0  0  0  0  0  0  0
   -5.3811   30.9724    8.6232 C   0  0  0  0  0  0  0  0  0  0  0  0
   -4.8147   29.5453    8.4880 C   0  0  0  0  0  0  0  0  0  0  0  0
   -4.2704   29.2630    7.1257 N   0  0  0  0  0  0  0  0  0  0  0  0
   -3.2747   30.3076    6.7003 C   0  0  0  0  0  0  0  0  0  0  0  0
   -3.8698   31.7407    6.8929 C   0  0  0  0  0  0  0  0  0  0  0  0
   -1.9120   30.0282    7.3323 C   0  0  0  0  0  0  0  0  0  0  0  0
   -1.1068   29.0250    6.7584 C   0  0  0  0  0  0  0  0  0  0  0  0
    0.1467   28.7141    7.2896 C   0  0  0  0  0  0  0  0  0  0  0  0
    0.6161   29.3977    8.4071 C   0  0  0  0  0  0  0  0  0  0  0  0
   -0.1667   30.3927    8.9900 C   0  0  0  0  0  0  0  0  0  0  0  0
   -1.4214   30.7060    8.4583 C   0  0  0  0  0  0  0  0  0  0  0  0
   -5.3810   28.8271    5.9305 S   0  0  0  0  0  0  0  0  0  0  0  0
   -5.5007   29.9227    4.9943 O   0  0  0  0  0  0  0  0  0  0  0  0
   -6.5431   28.2384    6.5581 O   0  0  0  0  0  0  0  0  0  0  0  0
   -4.7027   27.5670    4.9954 C   0  0  0  0  0  0  0  0  0  0  0  0
   -5.1166   27.0615    3.7834 C   0  0  0  0  0  0  0  0  0  0  0  0
   -4.2278   26.0697    3.4768 N   0  0  0  0  0  0  0  0  0  0  0  0
   -3.2859   25.8869    4.4297 N   0  0  0  0  0  0  0  0  0  0  0  0
   -3.5727   26.8171    5.3473 C   0  0  0  0  0  0  0  0  0  0  0  0
   -4.2322   25.2523    2.2741 C   0  0  0  0  0  0  0  0  0  0  0  0
   -4.0216   23.7531    2.5544 C   0  0  0  0  0  0  0  0  0  0  0  0
   -5.3571   23.0961    2.2270 C   0  0  0  0  0  0  0  0  0  0  0  0
   -5.8825   23.9328    1.0711 C   0  0  0  0  0  0  0  0  0  0  0  0
   -5.5490   25.3614    1.4839 C   0  0  0  0  0  0  0  0  0  0  0  0
  1  2  1  0  0  0
  2  3  1  0  0  0
  3  4  1  0  0  0
  4  5  1  0  0  0
  5 14  1  0  0  0
 14 15  2  0  0  0
 14 16  2  0  0  0
 14 17  1  0  0  0
 17 18  2  0  0  0
 18 19  1  0  0  0
 19 22  1  0  0  0
 22 23  1  0  0  0
 23 24  1  0  0  0
 24 25  1  0  0  0
 25 26  1  0  0  0
 19 20  1  0  0  0
 20 21  2  0  0  0
  5  6  1  0  0  0
  6  8  1  0  0  0
  8  9  2  0  0  0
  9 10  1  0  0  0
 10 11  2  0  0  0
 11 12  1  0  0  0
 12 13  2  0  0  0
  6  7  1  0  0  0
  7  2  1  0  0  0
 21 17  1  0  0  0
 13  8  1  0  0  0
 26 22  1  0  0  0
M  END
> <minimizedAffinity>
-9.44835

$$$$
OCNT-2309435


 25 27  0  0  0  0  0  0  0  0999 V2000
   -6.5943   27.5418    6.3413 N   0  0  0  0  0  0  0  0  0  0  0  0
   -7.4303   27.0052    6.5797 H   0  0  0  0  0  0  0  0  0  0  0  0
   -5.3828   25.8136    2.7639 C   0  0  0  0  0  0  0  0  0  0  0  0
   -5.6113   27.1877    2.7974 C   0  0  0  0  0  0  0  0  0  0  0  0
   -6.0163   27.7878    3.9881 C   0  0  0  0  0  0  0  0  0  0  0  0
   -6.1891   27.0011    5.1209 C   0  0  0  0  0  0  0  0  0  0  0  0
   -5.9545   25.6776    5.1161 N   0  0  0  0  0  0  0  0  0  0  0  0
   -5.5603   25.1141    3.9511 C   0  0  0  0  0  0  0  0  0  0  0  0
   -4.9216   25.1217    1.5099 C   0  0  0  0  0  0  0  0  0  0  0  0
   -6.0818   24.8998    0.5328 C   0  0  0  0  0  0  0  0  0  0  0  0
   -7.8179   23.3011   -0.4349 C   0  0  0  0  0  0  0  0  0  0  0  0
   -6.8540   23.5797    0.7182 C   0  0  0  0  0  0  0  0  0  0  0  0
   -5.9233   22.3873    0.9376 C   0  0  0  0  0  0  0  0  0  0  0  0
   -6.9510   28.9627    6.2807 C   0  0  0  0  0  0  0  0  0  0  0  0
   -6.1888   29.8955    7.1857 C   0  0  0  0  0  0  0  0  0  0  0  0
   -6.7176   30.9383    7.9238 C   0  0  0  0  0  0  0  0  0  0  0  0
   -5.4837   31.7073    8.8274 S   0  0  0  0  0  0  0  0  0  0  0  0
   -4.3379   30.6023    8.1865 C   0  0  0  0  0  0  0  0  0  0  0  0
   -4.8197   29.7139    7.3419 N   0  0  0  0  0  0  0  0  0  0  0  0
   -2.8276   30.6328    8.5611 C   0  0  0  0  0  0  0  0  0  0  0  0
   -1.9059   29.6634    8.2402 C   0  0  0  0  0  0  0  0  0  0  0  0
   -0.7215   30.0912    8.7617 N   0  0  0  0  0  0  0  0  0  0  0  0
    0.5513   29.4158    8.6935 C   0  0  0  0  0  0  0  0  0  0  0  0
   -0.8100   31.2773    9.3970 N   0  0  0  0  0  0  0  0  0  0  0  0
   -2.1018   31.6027    9.2738 C   0  0  0  0  0  0  0  0  0  0  0  0
 11 12  1  0  0  0
 12 13  1  0  0  0
 12 10  1  0  0  0
 10  9  1  0  0  0
  9  3  1  0  0  0
  3  4  2  0  0  0
  4  5  1  0  0  0
  5  6  2  0  0  0
  6  1  1  0  0  0
  1 14  1  0  0  0
 14 15  1  0  0  0
 15 16  2  0  0  0
 16 17  1  0  0  0
 17 18  1  0  0  0
 18 20  1  0  0  0
 20 21  2  0  0  0
 21 22  1  0  0  0
 22 23  1  0  0  0
 22 24  1  0  0  0
 24 25  2  0  0  0
 18 19  2  0  0  0
  6  7  1  0  0  0
  7  8  2  0  0  0
  8  3  1  0  0  0
 19 15  1  0  0  0
 25 20  1  0  0  0
  1  2  1  0  0  0
M  END
> <minimizedAffinity>
-8.94340

$$$$
OCNT-2309439


 27 29  0  0  0  0  0  0  0  0999 V2000
   -6.0542   30.3985    6.3967 N   0  0  0  0  0  0  0  0  0  0  0  0
   -4.7293   30.4304    6.7485 C   0  0  0  0  0  0  0  0  0  0  0  0
   -3.9112   29.6482    6.2732 O   0  0  0  0  0  0  0  0  0  0  0  0
   -4.4008   31.3695    7.6979 N   0  0  0  0  0  0  0  0  0  0  0  0
   -5.2506   32.4306    8.2218 C   0  0  0  0  0  0  0  0  0  0  0  0
   -4.2761   33.4668    8.7550 C   0  0  0  0  0  0  0  0  0  0  0  0
   -3.1276   32.6137    9.2640 C   0  0  0  0  0  0  0  0  0  0  0  0
   -3.0324   31.4794    8.2285 C   0  0  0  0  0  0  0  0  0  0  0  0
   -6.5189   31.2910    6.4170 H   0  0  0  0  0  0  0  0  0  0  0  0
   -6.5034   29.4948    5.3510 C   0  0  0  0  0  0  0  0  0  0  0  0
   -6.6264   28.0487    5.8380 C   0  0  0  0  0  0  0  0  0  0  0  0
   -5.6097   25.1330    2.7937 C   0  0  0  0  0  0  0  0  0  0  0  0
   -5.5757   26.4980    2.5036 C   0  0  0  0  0  0  0  0  0  0  0  0
   -5.8971   27.4395    3.4908 C   0  0  0  0  0  0  0  0  0  0  0  0
   -6.2555   27.0323    4.7829 C   0  0  0  0  0  0  0  0  0  0  0  0
   -6.2857   25.6640    5.0725 C   0  0  0  0  0  0  0  0  0  0  0  0
   -5.9671   24.7340    4.0848 C   0  0  0  0  0  0  0  0  0  0  0  0
   -6.0175   23.4299    4.3981 F   0  0  0  0  0  0  0  0  0  0  0  0
   -6.3697   23.7021    1.0486 C   0  0  0  0  0  0  0  0  0  0  0  0
   -5.3250   24.1233    1.9155 O   0  0  0  0  0  0  0  0  0  0  0  0
   -2.4847   30.1765    8.8702 C   0  0  0  0  0  0  0  0  0  0  0  0
   -1.1152   29.8155    8.4422 N   0  0  0  0  0  0  0  0  0  0  0  0
   -0.8100   30.3619    7.0987 C   0  0  0  0  0  0  0  0  0  0  0  0
    0.2892   29.5583    6.3866 C   0  0  0  0  0  0  0  0  0  0  0  0
   -0.0965   28.2022    6.1230 O   0  0  0  0  0  0  0  0  0  0  0  0
   -1.0461   27.6956    7.0711 C   0  0  0  0  0  0  0  0  0  0  0  0
   -0.9169   28.3477    8.4567 C   0  0  0  0  0  0  0  0  0  0  0  0
 19 20  1  0  0  0
 20 12  1  0  0  0
 12 13  1  0  0  0
 13 14  2  0  0  0
 14 15  1  0  0  0
 15 11  1  0  0  0
 11 10  1  0  0  0
 10  1  1  0  0  0
  1  2  1  0  0  0
  2  3  2  0  0  0
  2  4  1  0  0  0
  4  5  1  0  0  0
  5  6  1  0  0  0
  6  7  1  0  0  0
  7  8  1  0  0  0
  8 21  1  0  0  0
 21 22  1  0  0  0
 22 23  1  0  0  0
 23 24  1  0  0  0
 24 25  1  0  0  0
 25 26  1  0  0  0
 26 27  1  0  0  0
 15 16  2  0  0  0
 16 17  1  0  0  0
 17 18  1  0  0  0
 17 12  2  0  0  0
  8  4  1  0  0  0
 27 22  1  0  0  0
  1  9  1  0  0  0
M  END
> <minimizedAffinity>
-8.98197

$$$$
OCNT-2309445


 28 31  0  0  0  0  0  0  0  0999 V2000
   -6.0049   26.7102    3.8394 N   0  0  0  0  0  0  0  0  0  0  0  0
   -5.9550   27.1890    5.1165 C   0  0  0  0  0  0  0  0  0  0  0  0
   -5.9553   28.5578    4.9589 C   0  0  0  0  0  0  0  0  0  0  0  0
   -5.9996   28.8479    3.6168 N   0  0  0  0  0  0  0  0  0  0  0  0
   -6.0240   27.7067    2.9415 N   0  0  0  0  0  0  0  0  0  0  0  0
   -5.9147   29.5682    6.0030 C   0  0  0  0  0  0  0  0  0  0  0  0
   -7.0640   29.9704    6.6912 C   0  0  0  0  0  0  0  0  0  0  0  0
   -6.9796   30.9305    7.6993 C   0  0  0  0  0  0  0  0  0  0  0  0
   -5.7490   31.5095    8.0200 C   0  0  0  0  0  0  0  0  0  0  0  0
   -4.5870   31.1646    7.3241 C   0  0  0  0  0  0  0  0  0  0  0  0
   -4.6876   30.1648    6.3422 C   0  0  0  0  0  0  0  0  0  0  0  0
   -3.3170   31.6558    7.6456 N   0  0  0  0  0  0  0  0  0  0  0  0
   -3.0597   31.4308    8.6045 H   0  0  0  0  0  0  0  0  0  0  0  0
   -2.2014   31.4386    6.7270 C   0  0  0  0  0  0  0  0  0  0  0  0
   -1.1019   30.6068    7.3314 C   0  0  0  0  0  0  0  0  0  0  0  0
   -0.2413   29.7371    6.6881 C   0  0  0  0  0  0  0  0  0  0  0  0
    0.6753   29.1169    7.5844 C   0  0  0  0  0  0  0  0  0  0  0  0
    0.4838   29.5310    8.8833 C   0  0  0  0  0  0  0  0  0  0  0  0
   -0.7937   30.6599    9.0160 S   0  0  0  0  0  0  0  0  0  0  0  0
   -6.0206   25.3231    3.4171 C   0  0  0  0  0  0  0  0  0  0  0  0
   -7.6708   23.4386   -0.3911 C   0  0  0  0  0  0  0  0  0  0  0  0
   -6.8703   23.6029    0.8998 C   0  0  0  0  0  0  0  0  0  0  0  0
   -5.8891   22.4364    1.0819 C   0  0  0  0  0  0  0  0  0  0  0  0
   -5.0847   22.6096    2.2907 N   0  0  0  0  0  0  0  0  0  0  0  0
   -4.3007   23.8447    2.2461 C   0  0  0  0  0  0  0  0  0  0  0  0
   -5.2019   25.0848    2.1336 C   0  0  0  0  0  0  0  0  0  0  0  0
   -6.1194   24.9423    0.9053 C   0  0  0  0  0  0  0  0  0  0  0  0
   -4.4521   21.8152    2.3956 H   0  0  0  0  0  0  0  0  0  0  0  0
 21 22  1  0  0  0
 22 23  1  0  0  0
 23 24  1  0  0  0
 24 25  1  0  0  0
 25 26  1  0  0  0
 26 20  1  0  0  0
 20  1  1  0  0  0
  1  2  1  0  0  0
  2  3  2  0  0  0
  3  6  1  0  0  0
  6  7  1  0  0  0
  7  8  2  0  0  0
  8  9  1  0  0  0
  9 10  2  0  0  0
 10 12  1  0  0  0
 12 14  1  0  0  0
 14 15  1  0  0  0
 15 16  2  0  0  0
 16 17  1  0  0  0
 17 18  2  0  0  0
 18 19  1  0  0  0
 10 11  1  0  0  0
  3  4  1  0  0  0
  4  5  2  0  0  0
 26 27  1  0  0  0
 27 22  1  0  0  0
  5  1  1  0  0  0
 11  6  2  0  0  0
 19 15  1  0  0  0
 24 28  1  0  0  0
 12 13  1  0  0  0
M  END
> <minimizedAffinity>
-9.78399

$$$$
OCNT-2309447


 31 33  0  0  0  0  0  0  0  0999 V2000
   -5.8144   28.4040    5.5908 N   0  0  0  0  0  0  0  0  0  0  0  0
   -5.8756   28.0740    4.2611 C   0  0  0  0  0  0  0  0  0  0  0  0
   -5.8670   28.9129    3.3656 O   0  0  0  0  0  0  0  0  0  0  0  0
   -5.8376   27.6756    6.2874 H   0  0  0  0  0  0  0  0  0  0  0  0
   -5.9554   26.6578    3.9765 C   0  0  0  0  0  0  0  0  0  0  0  0
   -6.1753   25.5494    4.7768 C   0  0  0  0  0  0  0  0  0  0  0  0
   -6.1527   24.3818    3.9562 C   0  0  0  0  0  0  0  0  0  0  0  0
   -6.3074   22.9965    4.1633 C   0  0  0  0  0  0  0  0  0  0  0  0
   -6.6007   22.4910    5.7698 Cl  0  0  0  0  0  0  0  0  0  0  0  0
   -6.2250   22.0888    3.1101 C   0  0  0  0  0  0  0  0  0  0  0  0
   -5.9839   22.5643    1.8261 C   0  0  0  0  0  0  0  0  0  0  0  0
   -5.8799   21.4465    0.5183 Cl  0  0  0  0  0  0  0  0  0  0  0  0
   -5.8226   23.9310    1.5657 C   0  0  0  0  0  0  0  0  0  0  0  0
   -5.9123   24.8149    2.6510 C   0  0  0  0  0  0  0  0  0  0  0  0
   -5.7962   26.1832    2.6923 N   0  0  0  0  0  0  0  0  0  0  0  0
   -5.6180   26.7845    1.8971 H   0  0  0  0  0  0  0  0  0  0  0  0
   -6.9736   30.1453    6.8949 C   0  0  0  0  0  0  0  0  0  0  0  0
   -5.7500   29.7806    6.0483 C   0  0  0  0  0  0  0  0  0  0  0  0
   -4.4412   30.0047    6.7850 C   0  0  0  0  0  0  0  0  0  0  0  0
   -3.5588   31.0010    6.3461 C   0  0  0  0  0  0  0  0  0  0  0  0
   -2.3423   31.2129    7.0005 C   0  0  0  0  0  0  0  0  0  0  0  0
   -1.9721   30.4272    8.0930 C   0  0  0  0  0  0  0  0  0  0  0  0
   -2.8403   29.4319    8.5363 C   0  0  0  0  0  0  0  0  0  0  0  0
   -4.0613   29.2182    7.8837 C   0  0  0  0  0  0  0  0  0  0  0  0
   -0.7610   30.7449    8.6399 O   0  0  0  0  0  0  0  0  0  0  0  0
    0.2569   29.7597    8.6215 C   0  0  0  0  0  0  0  0  0  0  0  0
    0.4852   29.0426    7.2861 C   0  0  0  0  0  0  0  0  0  0  0  0
    0.1604   27.7112    7.2882 N   0  0  0  0  0  0  0  0  0  0  0  0
    0.9393   29.5601    6.2724 O   0  0  0  0  0  0  0  0  0  0  0  0
   -0.4637   27.3167    7.9787 H   0  0  0  0  0  0  0  0  0  0  0  0
    0.2147   27.2453    6.3901 H   0  0  0  0  0  0  0  0  0  0  0  0
 17 18  1  0  0  0
 18  1  1  0  0  0
  1  2  1  0  0  0
  2  3  2  0  0  0
  2  5  1  0  0  0
  5  6  2  0  0  0
  6  7  1  0  0  0
  7  8  2  0  0  0
  8  9  1  0  0  0
  8 10  1  0  0  0
 10 11  2  0  0  0
 11 12  1  0  0  0
 11 13  1  0  0  0
 13 14  2  0  0  0
 14 15  1  0  0  0
 18 19  1  0  0  0
 19 20  1  0  0  0
 20 21  2  0  0  0
 21 22  1  0  0  0
 22 25  1  0  0  0
 25 26  1  0  0  0
 26 27  1  0  0  0
 27 28  1  0  0  0
 27 29  2  0  0  0
 22 23  2  0  0  0
 23 24  1  0  0  0
 15  5  1  0  0  0
 24 19  2  0  0  0
 14  7  1  0  0  0
  1  4  1  0  0  0
 15 16  1  0  0  0
 28 30  1  0  0  0
 28 31  1  0  0  0
M  END
> <minimizedAffinity>
-9.11465

$$$$
OCNT-2309448


 27 30  0  0  0  0  0  0  0  0999 V2000
   -2.6122   26.2769    4.3421 C   0  0  0  0  0  0  0  0  0  0  0  0
   -1.3504   25.9392    3.8346 C   0  0  0  0  0  0  0  0  0  0  0  0
   -0.2004   26.1469    4.5980 C   0  0  0  0  0  0  0  0  0  0  0  0
   -0.2961   26.6940    5.8794 C   0  0  0  0  0  0  0  0  0  0  0  0
   -1.5434   27.0361    6.4012 C   0  0  0  0  0  0  0  0  0  0  0  0
   -2.6927   26.8275    5.6301 C   0  0  0  0  0  0  0  0  0  0  0  0
   -5.2797   25.0493    2.4211 C   0  0  0  0  0  0  0  0  0  0  0  0
   -4.1744   24.8006    3.0906 N   0  0  0  0  0  0  0  0  0  0  0  0
   -3.8111   26.0556    3.5399 C   0  0  0  0  0  0  0  0  0  0  0  0
   -4.6629   27.0290    3.1734 N   0  0  0  0  0  0  0  0  0  0  0  0
   -5.6376   26.3639    2.4360 O   0  0  0  0  0  0  0  0  0  0  0  0
   -7.2240   23.7121    2.6276 O   0  0  0  0  0  0  0  0  0  0  0  0
   -6.1788   24.0860    1.7066 C   0  0  0  0  0  0  0  0  0  0  0  0
   -5.4313   22.8046    1.3067 C   0  0  0  0  0  0  0  0  0  0  0  0
   -6.3153   21.8435    0.5100 C   0  0  0  0  0  0  0  0  0  0  0  0
   -6.9380   22.5287   -0.7026 C   0  0  0  0  0  0  0  0  0  0  0  0
   -7.7095   23.7841   -0.3060 C   0  0  0  0  0  0  0  0  0  0  0  0
   -6.8373   24.7560    0.4902 C   0  0  0  0  0  0  0  0  0  0  0  0
   -7.2591   24.4061    3.3154 H   0  0  0  0  0  0  0  0  0  0  0  0
   -1.7785   27.5796    7.6338 O   0  0  0  0  0  0  0  0  0  0  0  0
   -0.8242   28.5203    8.1250 C   0  0  0  0  0  0  0  0  0  0  0  0
   -1.5607   29.7306    8.6257 C   0  0  0  0  0  0  0  0  0  0  0  0
   -0.8760   30.8494    9.1162 C   0  0  0  0  0  0  0  0  0  0  0  0
   -1.5922   31.9452    9.5883 C   0  0  0  0  0  0  0  0  0  0  0  0
   -2.9785   31.8845    9.5581 C   0  0  0  0  0  0  0  0  0  0  0  0
   -3.6768   30.8225    9.0961 N   0  0  0  0  0  0  0  0  0  0  0  0
   -2.9537   29.7751    8.6375 C   0  0  0  0  0  0  0  0  0  0  0  0
 12 13  1  0  0  0
 13  7  1  0  0  0
  7  8  2  0  0  0
  8  9  1  0  0  0
  9  1  1  0  0  0
  1  2  2  0  0  0
  2  3  1  0  0  0
  3  4  2  0  0  0
  4  5  1  0  0  0
  5 20  1  0  0  0
 20 21  1  0  0  0
 21 22  1  0  0  0
 22 23  1  0  0  0
 23 24  2  0  0  0
 24 25  1  0  0  0
 25 26  2  0  0  0
 26 27  1  0  0  0
  5  6  2  0  0  0
  9 10  2  0  0  0
 10 11  1  0  0  0
 13 14  1  0  0  0
 14 15  1  0  0  0
 15 16  1  0  0  0
 16 17  1  0  0  0
 17 18  1  0  0  0
 18 13  1  0  0  0
 11  7  1  0  0  0
  6  1  1  0  0  0
 27 22  2  0  0  0
 12 19  1  0  0  0
M  END
> <minimizedAffinity>
-10.25097

$$$$
OCNT-2309461


 23 25  0  0  0  0  0  0  0  0999 V2000
   -3.4010   26.7754    5.3939 C   0  0  0  0  0  0  0  0  0  0  0  0
   -3.0242   26.1612    4.0467 C   0  0  0  0  0  0  0  0  0  0  0  0
   -4.0468   25.1434    3.6121 C   0  0  0  0  0  0  0  0  0  0  0  0
   -3.6869   24.0738    2.7840 C   0  0  0  0  0  0  0  0  0  0  0  0
   -4.6613   23.1877    2.3214 C   0  0  0  0  0  0  0  0  0  0  0  0
   -5.9969   23.3821    2.6717 C   0  0  0  0  0  0  0  0  0  0  0  0
   -7.3151   22.1871    2.0311 Br  0  0  0  0  0  0  0  0  0  0  0  0
   -6.3719   24.4507    3.4852 C   0  0  0  0  0  0  0  0  0  0  0  0
   -5.3922   25.3211    3.9604 C   0  0  0  0  0  0  0  0  0  0  0  0
   -5.7631   26.4028    4.7663 N   0  0  0  0  0  0  0  0  0  0  0  0
   -4.8663   27.2330    5.3863 C   0  0  0  0  0  0  0  0  0  0  0  0
   -5.2441   28.2487    5.9733 O   0  0  0  0  0  0  0  0  0  0  0  0
   -6.7412   26.6377    4.8825 H   0  0  0  0  0  0  0  0  0  0  0  0
   -1.4169   27.7891    6.4762 C   0  0  0  0  0  0  0  0  0  0  0  0
   -0.9191   26.7103    6.7734 O   0  0  0  0  0  0  0  0  0  0  0  0
   -2.5750   27.9236    5.7496 N   0  0  0  0  0  0  0  0  0  0  0  0
   -3.0184   28.8362    5.7009 H   0  0  0  0  0  0  0  0  0  0  0  0
   -0.7894   29.0888    6.9095 C   0  0  0  0  0  0  0  0  0  0  0  0
    0.5719   29.4330    6.3241 C   0  0  0  0  0  0  0  0  0  0  0  0
    0.4635   29.0597    7.7706 C   0  0  0  0  0  0  0  0  0  0  0  0
   -1.9244   30.4258    7.1255 S   0  0  0  0  0  0  0  0  0  0  0  0
   -1.4089   31.8237    9.4220 C   0  0  0  0  0  0  0  0  0  0  0  0
   -2.0435   30.5339    8.9340 C   0  0  0  0  0  0  0  0  0  0  0  0
 22 23  1  0  0  0
 23 21  1  0  0  0
 21 18  1  0  0  0
 18 14  1  0  0  0
 14 15  2  0  0  0
 14 16  1  0  0  0
 16  1  1  0  0  0
  1  2  1  0  0  0
  2  3  1  0  0  0
  3  4  1  0  0  0
  4  5  2  0  0  0
  5  6  1  0  0  0
  6  7  1  0  0  0
  6  8  2  0  0  0
  8  9  1  0  0  0
  9 10  1  0  0  0
 10 11  1  0  0  0
 11 12  2  0  0  0
 18 19  1  0  0  0
 19 20  1  0  0  0
 20 18  1  0  0  0
 11  1  1  0  0  0
  9  3  2  0  0  0
 16 17  1  0  0  0
 10 13  1  0  0  0
M  END
> <minimizedAffinity>
-7.85468

$$$$
OCNT-2309465


 31 35  0  0  0  0  0  0  0  0999 V2000
   -6.0672   23.7127    4.6526 C   0  0  0  0  0  0  0  0  0  0  0  0
   -6.4797   23.3413    5.9220 C   0  0  0  0  0  0  0  0  0  0  0  0
   -7.8026   22.8451    5.7954 C   0  0  0  0  0  0  0  0  0  0  0  0
   -8.1914   22.9054    4.5143 N   0  0  0  0  0  0  0  0  0  0  0  0
   -7.1104   23.3488    3.8360 N   0  0  0  0  0  0  0  0  0  0  0  0
   -8.6937   22.3367    6.8455 C   0  0  0  0  0  0  0  0  0  0  0  0
   -8.2088   22.1293    8.1482 C   0  0  0  0  0  0  0  0  0  0  0  0
   -9.0441   21.6426    9.1589 C   0  0  0  0  0  0  0  0  0  0  0  0
  -10.3767   21.3602    8.8756 C   0  0  0  0  0  0  0  0  0  0  0  0
  -11.4084   20.7608   10.1146 Cl  0  0  0  0  0  0  0  0  0  0  0  0
  -10.8799   21.5619    7.5928 C   0  0  0  0  0  0  0  0  0  0  0  0
  -10.0420   22.0486    6.5823 C   0  0  0  0  0  0  0  0  0  0  0  0
   -4.5533   25.6174    4.5410 N   0  0  0  0  0  0  0  0  0  0  0  0
   -5.6344   26.5931    4.4137 C   0  0  0  0  0  0  0  0  0  0  0  0
   -4.8034   24.2710    4.2045 C   0  0  0  0  0  0  0  0  0  0  0  0
   -4.0053   23.5872    3.5675 O   0  0  0  0  0  0  0  0  0  0  0  0
    1.1155   29.1372    7.6608 C   0  0  0  0  0  0  0  0  0  0  0  0
    0.1374   28.3607    6.8649 C   0  0  0  0  0  0  0  0  0  0  0  0
   -1.1383   28.1834    7.1365 N   0  0  0  0  0  0  0  0  0  0  0  0
   -1.6293   27.3944    6.1242 C   0  0  0  0  0  0  0  0  0  0  0  0
   -2.9285   26.8996    5.9164 C   0  0  0  0  0  0  0  0  0  0  0  0
   -3.2134   26.1013    4.7914 C   0  0  0  0  0  0  0  0  0  0  0  0
   -2.1653   25.8480    3.8822 C   0  0  0  0  0  0  0  0  0  0  0  0
   -0.8569   26.3261    4.0702 C   0  0  0  0  0  0  0  0  0  0  0  0
   -0.6333   27.0950    5.2072 C   0  0  0  0  0  0  0  0  0  0  0  0
    0.4838   27.7157    5.7033 N   0  0  0  0  0  0  0  0  0  0  0  0
    1.4030   27.7049    5.2866 H   0  0  0  0  0  0  0  0  0  0  0  0
   -7.2050   23.4894    2.3846 C   0  0  0  0  0  0  0  0  0  0  0  0
   -7.0661   22.2218    1.5867 C   0  0  0  0  0  0  0  0  0  0  0  0
   -5.8603   21.8661    0.7474 C   0  0  0  0  0  0  0  0  0  0  0  0
   -6.1344   21.1155    2.0217 C   0  0  0  0  0  0  0  0  0  0  0  0
 17 18  1  0  0  0
 18 19  2  0  0  0
 19 20  1  0  0  0
 20 21  2  0  0  0
 21 22  1  0  0  0
 22 13  1  0  0  0
 13 14  1  0  0  0
 13 15  1  0  0  0
 15 16  2  0  0  0
 15  1  1  0  0  0
  1  2  2  0  0  0
  2  3  1  0  0  0
  3  6  1  0  0  0
  6  7  1  0  0  0
  7  8  2  0  0  0
  8  9  1  0  0  0
  9 10  1  0  0  0
  9 11  2  0  0  0
 11 12  1  0  0  0
  3  4  2  0  0  0
  4  5  1  0  0  0
  5 28  1  0  0  0
 28 29  1  0  0  0
 29 30  1  0  0  0
 30 31  1  0  0  0
 22 23  2  0  0  0
 23 24  1  0  0  0
 24 25  2  0  0  0
 25 26  1  0  0  0
 26 18  1  0  0  0
 25 20  1  0  0  0
  5  1  1  0  0  0
 31 29  1  0  0  0
 12  6  2  0  0  0
 26 27  1  0  0  0
M  END
> <minimizedAffinity>
-9.30403

$$$$
OCNT-2309466


 24 26  0  0  0  0  0  0  0  0999 V2000
   -6.0659   29.9999    6.6517 C   0  0  0  0  0  0  0  0  0  0  0  0
   -7.1716   30.1160    7.1767 O   0  0  0  0  0  0  0  0  0  0  0  0
   -4.9303   30.6526    7.1287 N   0  0  0  0  0  0  0  0  0  0  0  0
   -5.1135   31.6295    8.1997 C   0  0  0  0  0  0  0  0  0  0  0  0
   -3.9170   32.5630    8.3272 C   0  0  0  0  0  0  0  0  0  0  0  0
   -2.6165   31.8018    8.5970 C   0  0  0  0  0  0  0  0  0  0  0  0
   -2.6251   30.3719    8.0282 C   0  0  0  0  0  0  0  0  0  0  0  0
   -3.5460   30.2670    6.8028 C   0  0  0  0  0  0  0  0  0  0  0  0
   -5.5646   27.0014    4.3993 C   0  0  0  0  0  0  0  0  0  0  0  0
   -5.7426   27.6526    3.1838 C   0  0  0  0  0  0  0  0  0  0  0  0
   -6.0063   28.9786    3.0576 N   0  0  0  0  0  0  0  0  0  0  0  0
   -6.0954   29.6903    4.2070 C   0  0  0  0  0  0  0  0  0  0  0  0
   -5.9627   29.1280    5.4673 C   0  0  0  0  0  0  0  0  0  0  0  0
   -5.6676   27.7674    5.5599 C   0  0  0  0  0  0  0  0  0  0  0  0
   -5.2816   25.6833    4.6020 O   0  0  0  0  0  0  0  0  0  0  0  0
   -6.1187   23.6644    5.5303 C   0  0  0  0  0  0  0  0  0  0  0  0
   -6.3249   24.7156    4.4419 C   0  0  0  0  0  0  0  0  0  0  0  0
   -6.2248   24.0671    3.0644 C   0  0  0  0  0  0  0  0  0  0  0  0
   -1.2375   29.9188    7.7005 C   0  0  0  0  0  0  0  0  0  0  0  0
   -0.6677   29.9184    6.5129 N   0  0  0  0  0  0  0  0  0  0  0  0
    0.5958   29.4246    6.7051 C   0  0  0  0  0  0  0  0  0  0  0  0
    0.8009   29.1196    8.0281 C   0  0  0  0  0  0  0  0  0  0  0  0
   -0.3715   29.4392    8.6534 N   0  0  0  0  0  0  0  0  0  0  0  0
   -0.5702   29.3434    9.6400 H   0  0  0  0  0  0  0  0  0  0  0  0
 16 17  1  0  0  0
 17 18  1  0  0  0
 17 15  1  0  0  0
 15  9  1  0  0  0
  9 10  1  0  0  0
 10 11  2  0  0  0
 11 12  1  0  0  0
 12 13  2  0  0  0
 13  1  1  0  0  0
  1  2  2  0  0  0
  1  3  1  0  0  0
  3  4  1  0  0  0
  4  5  1  0  0  0
  5  6  1  0  0  0
  6  7  1  0  0  0
  7 19  1  0  0  0
 19 20  2  0  0  0
 20 21  1  0  0  0
 21 22  2  0  0  0
 22 23  1  0  0  0
  7  8  1  0  0  0
 13 14  1  0  0  0
 14  9  2  0  0  0
  8  3  1  0  0  0
 23 19  1  0  0  0
 23 24  1  0  0  0
M  END
> <minimizedAffinity>
-8.15184

$$$$
OCNT-2309476


 28 31  0  0  0  0  0  0  0  0999 V2000
   -4.8185   25.4948    3.0480 S   0  0  0  0  0  0  0  0  0  0  0  0
   -5.8003   26.4438    2.5675 O   0  0  0  0  0  0  0  0  0  0  0  0
   -3.8995   24.8129    2.1629 O   0  0  0  0  0  0  0  0  0  0  0  0
   -1.7744   28.4620    7.1287 N   0  0  0  0  0  0  0  0  0  0  0  0
   -2.7272   29.2418    7.6877 N   0  0  0  0  0  0  0  0  0  0  0  0
   -3.8393   28.9094    7.0341 C   0  0  0  0  0  0  0  0  0  0  0  0
   -3.6174   27.9319    6.0437 C   0  0  0  0  0  0  0  0  0  0  0  0
   -4.4189   27.2626    5.1037 C   0  0  0  0  0  0  0  0  0  0  0  0
   -3.8073   26.3275    4.2568 C   0  0  0  0  0  0  0  0  0  0  0  0
   -2.4434   26.0453    4.3422 C   0  0  0  0  0  0  0  0  0  0  0  0
   -1.6411   26.7061    5.2784 C   0  0  0  0  0  0  0  0  0  0  0  0
   -2.2525   27.6508    6.1195 C   0  0  0  0  0  0  0  0  0  0  0  0
   -0.3376   29.4277    8.9094 C   0  0  0  0  0  0  0  0  0  0  0  0
   -0.4119   28.5751    7.6437 C   0  0  0  0  0  0  0  0  0  0  0  0
    0.5766   29.0413    6.5760 C   0  0  0  0  0  0  0  0  0  0  0  0
   -5.6180   24.3598    3.9948 N   0  0  0  0  0  0  0  0  0  0  0  0
   -6.6976   24.8170    4.8965 C   0  0  0  0  0  0  0  0  0  0  0  0
   -6.8026   23.8580    6.1053 C   0  0  0  0  0  0  0  0  0  0  0  0
   -6.6937   22.4107    5.8038 N   0  0  0  0  0  0  0  0  0  0  0  0
   -5.4411   21.8606    6.3227 C   0  0  0  0  0  0  0  0  0  0  0  0
   -6.8169   22.1721    4.3467 C   0  0  0  0  0  0  0  0  0  0  0  0
   -5.8394   22.9898    3.4331 C   0  0  0  0  0  0  0  0  0  0  0  0
   -6.2966   22.9145    1.9837 C   0  0  0  0  0  0  0  0  0  0  0  0
   -7.3294   23.7231    1.4843 C   0  0  0  0  0  0  0  0  0  0  0  0
   -7.7367   23.6210    0.1524 C   0  0  0  0  0  0  0  0  0  0  0  0
   -7.1186   22.7101   -0.7001 C   0  0  0  0  0  0  0  0  0  0  0  0
   -6.0891   21.9036   -0.2233 C   0  0  0  0  0  0  0  0  0  0  0  0
   -5.6805   22.0049    1.1080 C   0  0  0  0  0  0  0  0  0  0  0  0
 13 14  1  0  0  0
 14 15  1  0  0  0
 14  4  1  0  0  0
  4  5  1  0  0  0
  5  6  2  0  0  0
  6  7  1  0  0  0
  7  8  2  0  0  0
  8  9  1  0  0  0
  9  1  1  0  0  0
  1  2  2  0  0  0
  1  3  2  0  0  0
  1 16  1  0  0  0
 16 17  1  0  0  0
 17 18  1  0  0  0
 18 19  1  0  0  0
 19 20  1  0  0  0
 19 21  1  0  0  0
 21 22  1  0  0  0
 22 23  1  0  0  0
 23 24  2  0  0  0
 24 25  1  0  0  0
 25 26  2  0  0  0
 26 27  1  0  0  0
 27 28  2  0  0  0
  9 10  2  0  0  0
 10 11  1  0  0  0
 11 12  2  0  0  0
 12  4  1  0  0  0
 12  7  1  0  0  0
 22 16  1  0  0  0
 28 23  1  0  0  0
M  END
> <minimizedAffinity>
-8.73703

$$$$
