OCNT-2310193


 26 29  0  0  0  0  0  0  0  0999 V2000
   -4.8752   30.2521    5.9428 O   0  0  0  0  0  0  0  0  0  0  0  0
   -4.8576   29.0592    6.2266 C   0  0  0  0  0  0  0  0  0  0  0  0
   -4.7371   28.5617    7.5083 N   0  0  0  0  0  0  0  0  0  0  0  0
   -4.6464   27.5667    7.6655 H   0  0  0  0  0  0  0  0  0  0  0  0
   -4.9312   28.0520    5.1462 C   0  0  0  0  0  0  0  0  0  0  0  0
   -5.8404   28.1175    4.0963 C   0  0  0  0  0  0  0  0  0  0  0  0
   -5.8234   27.1160    3.1218 C   0  0  0  0  0  0  0  0  0  0  0  0
   -4.9002   26.0692    3.1974 C   0  0  0  0  0  0  0  0  0  0  0  0
   -4.0240   26.0063    4.2234 N   0  0  0  0  0  0  0  0  0  0  0  0
   -4.0402   26.9927    5.1567 C   0  0  0  0  0  0  0  0  0  0  0  0
   -4.9025   25.0547    2.2452 N   0  0  0  0  0  0  0  0  0  0  0  0
   -6.1691   24.8653    1.5161 C   0  0  0  0  0  0  0  0  0  0  0  0
   -5.9964   23.7348    0.4887 C   0  0  0  0  0  0  0  0  0  0  0  0
   -5.6402   22.4652    1.0643 O   0  0  0  0  0  0  0  0  0  0  0  0
   -5.0801   22.5792    2.3797 C   0  0  0  0  0  0  0  0  0  0  0  0
   -4.1734   23.8106    2.5560 C   0  0  0  0  0  0  0  0  0  0  0  0
   -4.7822   29.3964    8.6789 C   0  0  0  0  0  0  0  0  0  0  0  0
   -5.5526   28.9276    9.9035 C   0  0  0  0  0  0  0  0  0  0  0  0
   -6.1174   30.0209    9.0590 C   0  0  0  0  0  0  0  0  0  0  0  0
   -3.5122   30.2225    8.8733 C   0  0  0  0  0  0  0  0  0  0  0  0
   -3.6027   31.5529    9.3323 C   0  0  0  0  0  0  0  0  0  0  0  0
   -2.4694   32.3454    9.5336 C   0  0  0  0  0  0  0  0  0  0  0  0
   -1.2042   31.8226    9.2899 C   0  0  0  0  0  0  0  0  0  0  0  0
   -1.0751   30.5052    8.8583 C   0  0  0  0  0  0  0  0  0  0  0  0
   -2.2139   29.7140    8.6614 C   0  0  0  0  0  0  0  0  0  0  0  0
   -1.9634   28.0677    8.1834 Cl  0  0  0  0  0  0  0  0  0  0  0  0
  1  2  2  0  0  0
  2  3  1  0  0  0
  3 17  1  0  0  0
 17 20  1  0  0  0
 20 21  2  0  0  0
 21 22  1  0  0  0
 22 23  2  0  0  0
 23 24  1  0  0  0
 24 25  2  0  0  0
 25 26  1  0  0  0
 17 18  1  0  0  0
 18 19  1  0  0  0
  2  5  1  0  0  0
  5  6  2  0  0  0
  6  7  1  0  0  0
  7  8  2  0  0  0
  8 11  1  0  0  0
 11 12  1  0  0  0
 12 13  1  0  0  0
 13 14  1  0  0  0
 14 15  1  0  0  0
 15 16  1  0  0  0
  8  9  1  0  0  0
  9 10  2  0  0  0
 19 17  1  0  0  0
 10  5  1  0  0  0
 25 20  1  0  0  0
 16 11  1  0  0  0
  3  4  1  0  0  0
M  END
> <minimizedAffinity>
-9.62136

$$$$
OCNT-2310197


 23 26  0  0  0  0  0  0  0  0999 V2000
   -5.1744   28.2521    6.4647 N   0  0  0  0  0  0  0  0  0  0  0  0
   -4.4066   28.3406    5.7996 H   0  0  0  0  0  0  0  0  0  0  0  0
   -6.3577   27.9178    5.6669 C   0  0  0  0  0  0  0  0  0  0  0  0
   -6.5903   29.0375    4.6275 C   0  0  0  0  0  0  0  0  0  0  0  0
   -5.7499   28.6649    3.3947 C   0  0  0  0  0  0  0  0  0  0  0  0
   -5.8028   27.1709    3.4598 C   0  0  0  0  0  0  0  0  0  0  0  0
   -5.5384   26.2619    2.4484 C   0  0  0  0  0  0  0  0  0  0  0  0
   -5.6637   24.9026    2.7389 C   0  0  0  0  0  0  0  0  0  0  0  0
   -5.3503   23.7403    1.5078 Cl  0  0  0  0  0  0  0  0  0  0  0  0
   -6.0454   24.4672    4.0170 C   0  0  0  0  0  0  0  0  0  0  0  0
   -6.2984   25.3931    5.0330 C   0  0  0  0  0  0  0  0  0  0  0  0
   -6.1568   26.7442    4.7471 C   0  0  0  0  0  0  0  0  0  0  0  0
   -2.9537   31.9040    8.4809 C   0  0  0  0  0  0  0  0  0  0  0  0
   -3.3903   32.9095    9.2169 N   0  0  0  0  0  0  0  0  0  0  0  0
   -4.7494   32.7616    9.3840 N   0  0  0  0  0  0  0  0  0  0  0  0
   -5.1131   31.6714    8.7462 C   0  0  0  0  0  0  0  0  0  0  0  0
   -6.3539   31.0289    8.5824 C   0  0  0  0  0  0  0  0  0  0  0  0
   -6.4088   29.9115    7.8486 C   0  0  0  0  0  0  0  0  0  0  0  0
   -5.1502   29.4014    7.2202 C   0  0  0  0  0  0  0  0  0  0  0  0
   -3.9787   29.9569    7.3849 N   0  0  0  0  0  0  0  0  0  0  0  0
   -4.0138   31.0909    8.1510 N   0  0  0  0  0  0  0  0  0  0  0  0
   -0.7734   30.8082    9.0432 C   0  0  0  0  0  0  0  0  0  0  0  0
   -1.5627   31.6274    8.0342 C   0  0  0  0  0  0  0  0  0  0  0  0
 22 23  1  0  0  0
 23 13  1  0  0  0
 13 14  2  0  0  0
 14 15  1  0  0  0
 15 16  2  0  0  0
 16 17  1  0  0  0
 17 18  2  0  0  0
 18 19  1  0  0  0
 19  1  1  0  0  0
  1  3  1  0  0  0
  3  4  1  0  0  0
  4  5  1  0  0  0
  5  6  1  0  0  0
  6  7  1  0  0  0
  7  8  2  0  0  0
  8  9  1  0  0  0
  8 10  1  0  0  0
 10 11  2  0  0  0
 11 12  1  0  0  0
 19 20  2  0  0  0
 20 21  1  0  0  0
 21 13  1  0  0  0
 21 16  1  0  0  0
 12  3  1  0  0  0
 12  6  2  0  0  0
  1  2  1  0  0  0
M  END
> <minimizedAffinity>
-9.30367

$$$$
OCNT-2310201


 26 28  0  0  0  0  0  0  0  0999 V2000
   -6.1062   29.0269    6.4059 C   0  0  0  0  0  0  0  0  0  0  0  0
    1.3809   29.2698    8.9078 C   0  0  0  0  0  0  0  0  0  0  0  0
    0.0088   29.1323    8.3232 C   0  0  0  0  0  0  0  0  0  0  0  0
   -1.0653   29.7755    8.8080 C   0  0  0  0  0  0  0  0  0  0  0  0
   -2.3306   29.6309    8.2486 N   0  0  0  0  0  0  0  0  0  0  0  0
   -3.3966   30.3270    8.7955 C   0  0  0  0  0  0  0  0  0  0  0  0
   -3.3370   31.0965    9.7539 O   0  0  0  0  0  0  0  0  0  0  0  0
   -4.6998   30.1105    8.1481 C   0  0  0  0  0  0  0  0  0  0  0  0
   -4.7764   29.2890    7.0949 C   0  0  0  0  0  0  0  0  0  0  0  0
   -3.6890   28.6226    6.5763 N   0  0  0  0  0  0  0  0  0  0  0  0
   -2.5397   28.8061    7.1517 C   0  0  0  0  0  0  0  0  0  0  0  0
   -1.3506   28.0924    6.6108 C   0  0  0  0  0  0  0  0  0  0  0  0
   -0.1516   28.2609    7.1808 C   0  0  0  0  0  0  0  0  0  0  0  0
   -6.2887   27.5813    6.3253 N   0  0  0  0  0  0  0  0  0  0  0  0
   -5.7121   27.1205    7.0300 H   0  0  0  0  0  0  0  0  0  0  0  0
   -6.1832   26.9479    5.0824 C   0  0  0  0  0  0  0  0  0  0  0  0
   -6.1457   25.5596    4.9198 C   0  0  0  0  0  0  0  0  0  0  0  0
   -5.9639   24.9805    3.6571 C   0  0  0  0  0  0  0  0  0  0  0  0
   -5.7813   25.7795    2.5249 C   0  0  0  0  0  0  0  0  0  0  0  0
   -5.7748   27.1679    2.6834 C   0  0  0  0  0  0  0  0  0  0  0  0
   -5.9578   27.7384    3.9477 C   0  0  0  0  0  0  0  0  0  0  0  0
   -5.5768   25.1577    1.1661 C   0  0  0  0  0  0  0  0  0  0  0  0
   -5.3703   23.6369    1.2005 C   0  0  0  0  0  0  0  0  0  0  0  0
   -6.5313   22.7991    0.6277 C   0  0  0  0  0  0  0  0  0  0  0  0
   -7.4602   23.6990   -0.1926 C   0  0  0  0  0  0  0  0  0  0  0  0
   -7.3349   22.0933    1.7209 C   0  0  0  0  0  0  0  0  0  0  0  0
  2  3  1  0  0  0
  3  4  2  0  0  0
  4  5  1  0  0  0
  5  6  1  0  0  0
  6  7  2  0  0  0
  6  8  1  0  0  0
  8  9  2  0  0  0
  9  1  1  0  0  0
  1 14  1  0  0  0
 14 16  1  0  0  0
 16 17  1  0  0  0
 17 18  2  0  0  0
 18 19  1  0  0  0
 19 22  1  0  0  0
 22 23  1  0  0  0
 23 24  1  0  0  0
 24 25  1  0  0  0
 24 26  1  0  0  0
 19 20  2  0  0  0
 20 21  1  0  0  0
  9 10  1  0  0  0
 10 11  2  0  0  0
 11 12  1  0  0  0
 12 13  2  0  0  0
 13  3  1  0  0  0
 11  5  1  0  0  0
 21 16  2  0  0  0
 14 15  1  0  0  0
M  END
> <minimizedAffinity>
-9.77420

$$$$
OCNT-2310214


 29 31  0  0  0  0  0  0  0  0999 V2000
   -2.8858   30.8271    6.0785 N   0  0  0  0  0  0  0  0  0  0  0  0
   -3.0968   29.9767    5.5493 H   0  0  0  0  0  0  0  0  0  0  0  0
   -1.5361   29.1076    7.1777 C   0  0  0  0  0  0  0  0  0  0  0  0
   -0.6174   28.7334    8.1612 C   0  0  0  0  0  0  0  0  0  0  0  0
   -0.1192   29.6870    9.0526 C   0  0  0  0  0  0  0  0  0  0  0  0
   -0.5308   31.0152    8.9627 C   0  0  0  0  0  0  0  0  0  0  0  0
   -1.4457   31.3971    7.9813 C   0  0  0  0  0  0  0  0  0  0  0  0
   -1.9616   30.4526    7.0865 C   0  0  0  0  0  0  0  0  0  0  0  0
   -2.1021   28.2594    6.2552 O   0  0  0  0  0  0  0  0  0  0  0  0
   -1.8219   26.8655    6.3909 C   0  0  0  0  0  0  0  0  0  0  0  0
   -1.6886   26.2882    4.9906 C   0  0  0  0  0  0  0  0  0  0  0  0
    0.5300   27.2294    4.9309 N   0  0  0  0  0  0  0  0  0  0  0  0
   -0.2451   26.1621    4.5815 C   0  0  0  0  0  0  0  0  0  0  0  0
    0.2296   25.2058    3.9820 O   0  0  0  0  0  0  0  0  0  0  0  0
    1.5182   27.1807    4.7201 H   0  0  0  0  0  0  0  0  0  0  0  0
    0.1954   27.9778    5.5221 H   0  0  0  0  0  0  0  0  0  0  0  0
   -4.1330   31.4177    6.5727 C   0  0  0  0  0  0  0  0  0  0  0  0
   -5.0760   30.5198    7.3085 C   0  0  0  0  0  0  0  0  0  0  0  0
   -5.4377   30.6416    8.6380 C   0  0  0  0  0  0  0  0  0  0  0  0
   -6.2922   29.6196    8.9030 N   0  0  0  0  0  0  0  0  0  0  0  0
   -6.5427   28.8455    7.8414 N   0  0  0  0  0  0  0  0  0  0  0  0
   -5.7877   29.3688    6.8620 C   0  0  0  0  0  0  0  0  0  0  0  0
   -6.7452   29.3921    9.7824 H   0  0  0  0  0  0  0  0  0  0  0  0
   -5.7840   28.6792    5.4392 C   0  0  0  0  0  0  0  0  0  0  0  0
   -6.0476   29.3784    4.2744 C   0  0  0  0  0  0  0  0  0  0  0  0
   -6.0102   28.5453    3.1162 C   0  0  0  0  0  0  0  0  0  0  0  0
   -5.7187   27.2500    3.4566 C   0  0  0  0  0  0  0  0  0  0  0  0
   -5.5984   25.8277    2.1871 Br  0  0  0  0  0  0  0  0  0  0  0  0
   -5.4791   27.0316    5.1175 S   0  0  0  0  0  0  0  0  0  0  0  0
 12 13  1  0  0  0
 13 14  2  0  0  0
 13 11  1  0  0  0
 11 10  1  0  0  0
 10  9  1  0  0  0
  9  3  1  0  0  0
  3  4  2  0  0  0
  4  5  1  0  0  0
  5  6  2  0  0  0
  6  7  1  0  0  0
  7  8  2  0  0  0
  8  1  1  0  0  0
  1 17  1  0  0  0
 17 18  1  0  0  0
 18 19  2  0  0  0
 19 20  1  0  0  0
 20 21  1  0  0  0
 21 22  2  0  0  0
 22 24  1  0  0  0
 24 25  2  0  0  0
 25 26  1  0  0  0
 26 27  2  0  0  0
 27 28  1  0  0  0
 27 29  1  0  0  0
  8  3  1  0  0  0
 22 18  1  0  0  0
 29 24  1  0  0  0
 12 15  1  0  0  0
 12 16  1  0  0  0
  1  2  1  0  0  0
 20 23  1  0  0  0
M  END
> <minimizedAffinity>
-8.38682

$$$$
OCNT-2310222


 26 28  0  0  0  0  0  0  0  0999 V2000
   -4.6294   29.8817    7.5055 O   0  0  0  0  0  0  0  0  0  0  0  0
   -4.3573   30.4022    6.4318 C   0  0  0  0  0  0  0  0  0  0  0  0
   -5.1284   30.2854    5.3001 N   0  0  0  0  0  0  0  0  0  0  0  0
   -3.2887   31.2294    6.2171 N   0  0  0  0  0  0  0  0  0  0  0  0
   -5.1841   31.1502    4.7857 H   0  0  0  0  0  0  0  0  0  0  0  0
   -2.9310   31.2653    5.2709 H   0  0  0  0  0  0  0  0  0  0  0  0
   -6.3769   29.5665    5.3991 C   0  0  0  0  0  0  0  0  0  0  0  0
   -6.1813   28.2210    4.8143 C   0  0  0  0  0  0  0  0  0  0  0  0
   -5.9515   27.8431    3.5053 C   0  0  0  0  0  0  0  0  0  0  0  0
   -5.8428   26.4300    3.4666 C   0  0  0  0  0  0  0  0  0  0  0  0
   -5.6240   25.4965    2.4363 C   0  0  0  0  0  0  0  0  0  0  0  0
   -5.5776   24.1336    2.7486 C   0  0  0  0  0  0  0  0  0  0  0  0
   -5.7417   23.7000    4.0642 C   0  0  0  0  0  0  0  0  0  0  0  0
   -5.9634   24.6105    5.1026 C   0  0  0  0  0  0  0  0  0  0  0  0
   -6.0103   25.9697    4.7735 C   0  0  0  0  0  0  0  0  0  0  0  0
   -6.2108   27.0740    5.5716 N   0  0  0  0  0  0  0  0  0  0  0  0
   -6.3572   27.0400    6.5714 H   0  0  0  0  0  0  0  0  0  0  0  0
   -2.4013   31.6160    7.2893 C   0  0  0  0  0  0  0  0  0  0  0  0
   -1.1832   30.7410    7.3888 C   0  0  0  0  0  0  0  0  0  0  0  0
   -0.6772   30.0859    6.2557 C   0  0  0  0  0  0  0  0  0  0  0  0
    0.4204   29.2274    6.3603 C   0  0  0  0  0  0  0  0  0  0  0  0
    1.0342   29.0226    7.5990 C   0  0  0  0  0  0  0  0  0  0  0  0
    0.5448   29.6831    8.7215 C   0  0  0  0  0  0  0  0  0  0  0  0
    1.1307   29.4765    9.9079 F   0  0  0  0  0  0  0  0  0  0  0  0
   -0.5467   30.5373    8.6162 C   0  0  0  0  0  0  0  0  0  0  0  0
   -1.0180   31.1452    9.7173 F   0  0  0  0  0  0  0  0  0  0  0  0
  1  2  2  0  0  0
  2  3  1  0  0  0
  3  7  1  0  0  0
  7  8  1  0  0  0
  8  9  2  0  0  0
  9 10  1  0  0  0
 10 11  2  0  0  0
 11 12  1  0  0  0
 12 13  2  0  0  0
 13 14  1  0  0  0
 14 15  2  0  0  0
 15 16  1  0  0  0
  2  4  1  0  0  0
  4 18  1  0  0  0
 18 19  1  0  0  0
 19 20  2  0  0  0
 20 21  1  0  0  0
 21 22  2  0  0  0
 22 23  1  0  0  0
 23 24  1  0  0  0
 23 25  2  0  0  0
 25 26  1  0  0  0
 16  8  1  0  0  0
 25 19  1  0  0  0
 15 10  1  0  0  0
  3  5  1  0  0  0
 16 17  1  0  0  0
  4  6  1  0  0  0
M  END
> <minimizedAffinity>
-9.91662

$$$$
OCNT-2310250


 29 32  0  0  0  0  0  0  0  0999 V2000
   -4.7094   26.2755    4.0745 C   0  0  0  0  0  0  0  0  0  0  0  0
   -4.5625   25.3792    3.0217 C   0  0  0  0  0  0  0  0  0  0  0  0
   -3.2300   25.0445    2.9558 N   0  0  0  0  0  0  0  0  0  0  0  0
   -2.5117   25.6827    3.9366 C   0  0  0  0  0  0  0  0  0  0  0  0
   -1.1451   25.6260    4.2346 C   0  0  0  0  0  0  0  0  0  0  0  0
   -0.6844   26.3920    5.3090 C   0  0  0  0  0  0  0  0  0  0  0  0
   -1.5576   27.1823    6.0515 C   0  0  0  0  0  0  0  0  0  0  0  0
   -2.9210   27.2273    5.7369 C   0  0  0  0  0  0  0  0  0  0  0  0
   -3.4118   26.4646    4.6564 C   0  0  0  0  0  0  0  0  0  0  0  0
   -2.8301   24.4196    2.2707 H   0  0  0  0  0  0  0  0  0  0  0  0
   -5.5367   24.8182    2.0918 C   0  0  0  0  0  0  0  0  0  0  0  0
   -5.7048   25.3842    0.8198 C   0  0  0  0  0  0  0  0  0  0  0  0
   -6.6353   24.8471   -0.0718 C   0  0  0  0  0  0  0  0  0  0  0  0
   -7.3963   23.7489    0.3109 C   0  0  0  0  0  0  0  0  0  0  0  0
   -8.2892   23.2355   -0.5450 F   0  0  0  0  0  0  0  0  0  0  0  0
   -7.2449   23.1767    1.5678 C   0  0  0  0  0  0  0  0  0  0  0  0
   -6.3137   23.7119    2.4599 C   0  0  0  0  0  0  0  0  0  0  0  0
   -5.9841   26.9072    4.5514 C   0  0  0  0  0  0  0  0  0  0  0  0
   -6.1030   28.3569    4.0902 C   0  0  0  0  0  0  0  0  0  0  0  0
   -4.9126   29.6951    5.6694 N   0  0  0  0  0  0  0  0  0  0  0  0
   -6.1701   29.3206    5.2608 C   0  0  0  0  0  0  0  0  0  0  0  0
   -7.2347   29.6921    5.7363 O   0  0  0  0  0  0  0  0  0  0  0  0
   -4.1066   29.3382    5.1728 H   0  0  0  0  0  0  0  0  0  0  0  0
   -5.3922   29.4722    8.9752 C   0  0  0  0  0  0  0  0  0  0  0  0
   -4.7396   30.4801    8.1114 C   0  0  0  0  0  0  0  0  0  0  0  0
   -4.1402   31.6362    8.5606 C   0  0  0  0  0  0  0  0  0  0  0  0
   -3.6356   32.3320    7.5215 O   0  0  0  0  0  0  0  0  0  0  0  0
   -3.8888   31.6493    6.3552 N   0  0  0  0  0  0  0  0  0  0  0  0
   -4.5543   30.5376    6.6997 C   0  0  0  0  0  0  0  0  0  0  0  0
 24 25  1  0  0  0
 25 26  2  0  0  0
 26 27  1  0  0  0
 27 28  1  0  0  0
 28 29  2  0  0  0
 29 20  1  0  0  0
 20 21  1  0  0  0
 21 22  2  0  0  0
 21 19  1  0  0  0
 19 18  1  0  0  0
 18  1  1  0  0  0
  1  2  2  0  0  0
  2 11  1  0  0  0
 11 12  1  0  0  0
 12 13  2  0  0  0
 13 14  1  0  0  0
 14 15  1  0  0  0
 14 16  2  0  0  0
 16 17  1  0  0  0
  2  3  1  0  0  0
  3  4  1  0  0  0
  4  5  2  0  0  0
  5  6  1  0  0  0
  6  7  2  0  0  0
  7  8  1  0  0  0
  8  9  2  0  0  0
 29 25  1  0  0  0
  9  1  1  0  0  0
 17 11  2  0  0  0
  9  4  1  0  0  0
 20 23  1  0  0  0
  3 10  1  0  0  0
M  END
> <minimizedAffinity>
-10.04539

$$$$
OCNT-2310252


 33 36  0  0  0  0  0  0  0  0999 V2000
   -4.0175   25.9202    3.8594 C   0  0  0  0  0  0  0  0  0  0  0  0
   -4.0812   24.9086    2.9151 C   0  0  0  0  0  0  0  0  0  0  0  0
   -5.3387   24.9327    2.3594 N   0  0  0  0  0  0  0  0  0  0  0  0
   -6.0992   25.8968    2.9250 N   0  0  0  0  0  0  0  0  0  0  0  0
   -5.3046   26.5333    3.7971 C   0  0  0  0  0  0  0  0  0  0  0  0
   -5.8641   24.0934    1.3350 C   0  0  0  0  0  0  0  0  0  0  0  0
   -5.6012   22.7143    1.3113 C   0  0  0  0  0  0  0  0  0  0  0  0
   -6.1343   21.9198    0.2928 C   0  0  0  0  0  0  0  0  0  0  0  0
   -6.9266   22.4899   -0.7035 C   0  0  0  0  0  0  0  0  0  0  0  0
   -7.1899   23.8573   -0.6883 C   0  0  0  0  0  0  0  0  0  0  0  0
   -6.6621   24.6583    0.3262 C   0  0  0  0  0  0  0  0  0  0  0  0
   -5.8437   27.6549    4.5568 C   0  0  0  0  0  0  0  0  0  0  0  0
   -5.8330   28.9627    4.0713 C   0  0  0  0  0  0  0  0  0  0  0  0
   -6.3649   29.9924    4.8467 C   0  0  0  0  0  0  0  0  0  0  0  0
   -6.9001   29.6768    6.0851 C   0  0  0  0  0  0  0  0  0  0  0  0
   -6.9491   28.4232    6.5829 N   0  0  0  0  0  0  0  0  0  0  0  0
   -6.4263   27.4431    5.8034 C   0  0  0  0  0  0  0  0  0  0  0  0
   -3.1619   26.2986    6.0526 N   0  0  0  0  0  0  0  0  0  0  0  0
   -2.8761   26.2440    4.7033 C   0  0  0  0  0  0  0  0  0  0  0  0
   -1.7521   26.4497    4.2641 O   0  0  0  0  0  0  0  0  0  0  0  0
   -4.1335   26.3309    6.3345 H   0  0  0  0  0  0  0  0  0  0  0  0
   -2.1855   26.7843    7.0226 C   0  0  0  0  0  0  0  0  0  0  0  0
   -1.5899   29.0325    6.4016 O   0  0  0  0  0  0  0  0  0  0  0  0
   -2.2383   28.3108    7.1535 C   0  0  0  0  0  0  0  0  0  0  0  0
   -2.9851   28.7230    8.2474 N   0  0  0  0  0  0  0  0  0  0  0  0
   -3.3255   27.9723    8.8386 H   0  0  0  0  0  0  0  0  0  0  0  0
   -3.2480   30.0390    8.6681 C   0  0  0  0  0  0  0  0  0  0  0  0
   -2.3292   30.8374    9.3547 C   0  0  0  0  0  0  0  0  0  0  0  0
   -2.6692   32.1400    9.7355 C   0  0  0  0  0  0  0  0  0  0  0  0
   -3.9285   32.6408    9.4315 C   0  0  0  0  0  0  0  0  0  0  0  0
   -4.2523   33.8861    9.7991 F   0  0  0  0  0  0  0  0  0  0  0  0
   -4.8542   31.8657    8.7464 C   0  0  0  0  0  0  0  0  0  0  0  0
   -4.5126   30.5659    8.3617 C   0  0  0  0  0  0  0  0  0  0  0  0
 23 24  2  0  0  0
 24 22  1  0  0  0
 22 18  1  0  0  0
 18 19  1  0  0  0
 19 20  2  0  0  0
 19  1  1  0  0  0
  1  2  2  0  0  0
  2  3  1  0  0  0
  3  6  1  0  0  0
  6  7  2  0  0  0
  7  8  1  0  0  0
  8  9  2  0  0  0
  9 10  1  0  0  0
 10 11  2  0  0  0
  3  4  1  0  0  0
  4  5  2  0  0  0
  5 12  1  0  0  0
 12 13  1  0  0  0
 13 14  2  0  0  0
 14 15  1  0  0  0
 15 16  2  0  0  0
 16 17  1  0  0  0
 24 25  1  0  0  0
 25 27  1  0  0  0
 27 28  1  0  0  0
 28 29  2  0  0  0
 29 30  1  0  0  0
 30 31  1  0  0  0
 30 32  2  0  0  0
 32 33  1  0  0  0
  5  1  1  0  0  0
 17 12  2  0  0  0
 33 27  2  0  0  0
 11  6  1  0  0  0
 18 21  1  0  0  0
 25 26  1  0  0  0
M  END
> <minimizedAffinity>
-10.77085

$$$$
OCNT-2310258


 29 32  0  0  0  0  0  0  0  0999 V2000
   -4.5541   25.3858    4.8000 C   0  0  0  0  0  0  0  0  0  0  0  0
   -4.7416   24.5138    3.7450 C   0  0  0  0  0  0  0  0  0  0  0  0
   -5.6998   25.0648    2.9191 N   0  0  0  0  0  0  0  0  0  0  0  0
   -6.1608   26.2346    3.4226 N   0  0  0  0  0  0  0  0  0  0  0  0
   -5.4667   26.4445    4.5448 C   0  0  0  0  0  0  0  0  0  0  0  0
   -5.7053   27.6294    5.3533 C   0  0  0  0  0  0  0  0  0  0  0  0
   -4.7704   28.6762    5.3491 C   0  0  0  0  0  0  0  0  0  0  0  0
   -5.0079   29.8254    6.1058 C   0  0  0  0  0  0  0  0  0  0  0  0
   -6.1712   29.9174    6.8660 C   0  0  0  0  0  0  0  0  0  0  0  0
   -6.3971   31.0216    7.5909 F   0  0  0  0  0  0  0  0  0  0  0  0
   -7.1038   28.8834    6.8834 C   0  0  0  0  0  0  0  0  0  0  0  0
   -6.8727   27.7350    6.1228 C   0  0  0  0  0  0  0  0  0  0  0  0
   -6.2015   24.5507    1.6890 C   0  0  0  0  0  0  0  0  0  0  0  0
   -6.7094   23.2418    1.6503 C   0  0  0  0  0  0  0  0  0  0  0  0
   -7.2157   22.7165    0.4590 C   0  0  0  0  0  0  0  0  0  0  0  0
   -7.2188   23.4905   -0.7009 C   0  0  0  0  0  0  0  0  0  0  0  0
   -6.7149   24.7907   -0.6722 C   0  0  0  0  0  0  0  0  0  0  0  0
   -6.2067   25.3240    0.5174 C   0  0  0  0  0  0  0  0  0  0  0  0
   -3.6184   25.2479    5.9513 C   0  0  0  0  0  0  0  0  0  0  0  0
   -1.9825   26.6953    4.9517 O   0  0  0  0  0  0  0  0  0  0  0  0
   -2.5912   26.3726    5.9670 C   0  0  0  0  0  0  0  0  0  0  0  0
   -2.4419   26.9458    7.2210 N   0  0  0  0  0  0  0  0  0  0  0  0
   -3.0007   26.5596    7.9715 H   0  0  0  0  0  0  0  0  0  0  0  0
   -1.5437   27.9699    7.5825 C   0  0  0  0  0  0  0  0  0  0  0  0
   -2.0554   29.0486    8.3097 C   0  0  0  0  0  0  0  0  0  0  0  0
   -1.2134   30.0822    8.7113 C   0  0  0  0  0  0  0  0  0  0  0  0
    0.1249   30.0072    8.3674 C   0  0  0  0  0  0  0  0  0  0  0  0
    0.6585   28.9891    7.6615 N   0  0  0  0  0  0  0  0  0  0  0  0
   -0.1842   27.9933    7.2839 C   0  0  0  0  0  0  0  0  0  0  0  0
 20 21  2  0  0  0
 21 19  1  0  0  0
 19  1  1  0  0  0
  1  2  2  0  0  0
  2  3  1  0  0  0
  3 13  1  0  0  0
 13 14  2  0  0  0
 14 15  1  0  0  0
 15 16  2  0  0  0
 16 17  1  0  0  0
 17 18  2  0  0  0
  3  4  1  0  0  0
  4  5  2  0  0  0
  5  6  1  0  0  0
  6  7  1  0  0  0
  7  8  2  0  0  0
  8  9  1  0  0  0
  9 10  1  0  0  0
  9 11  2  0  0  0
 11 12  1  0  0  0
 21 22  1  0  0  0
 22 24  1  0  0  0
 24 25  1  0  0  0
 25 26  2  0  0  0
 26 27  1  0  0  0
 27 28  2  0  0  0
 28 29  1  0  0  0
  5  1  1  0  0  0
 12  6  2  0  0  0
 29 24  2  0  0  0
 18 13  1  0  0  0
 22 23  1  0  0  0
M  END
> <minimizedAffinity>
-9.31644

$$$$
OCNT-2310262


 22 24  0  0  0  0  0  0  0  0999 V2000
   -2.3155   27.5963    7.0448 O   0  0  0  0  0  0  0  0  0  0  0  0
   -3.2479   28.1405    6.4580 C   0  0  0  0  0  0  0  0  0  0  0  0
   -3.8192   27.6417    5.2853 N   0  0  0  0  0  0  0  0  0  0  0  0
   -5.2382   27.8692    4.9468 C   0  0  0  0  0  0  0  0  0  0  0  0
   -5.5449   27.5952    3.4607 C   0  0  0  0  0  0  0  0  0  0  0  0
   -5.0246   26.2866    3.0072 N   0  0  0  0  0  0  0  0  0  0  0  0
   -3.5831   26.1315    3.3031 C   0  0  0  0  0  0  0  0  0  0  0  0
   -3.2796   26.3677    4.7937 C   0  0  0  0  0  0  0  0  0  0  0  0
   -3.7625   29.4078    7.0200 C   0  0  0  0  0  0  0  0  0  0  0  0
   -3.3098   30.6185    6.4852 C   0  0  0  0  0  0  0  0  0  0  0  0
   -3.8055   31.8237    6.9833 C   0  0  0  0  0  0  0  0  0  0  0  0
   -4.7613   31.8162    8.0014 C   0  0  0  0  0  0  0  0  0  0  0  0
   -5.2260   30.6024    8.5109 C   0  0  0  0  0  0  0  0  0  0  0  0
   -6.5317   30.5989    9.8780 Br  0  0  0  0  0  0  0  0  0  0  0  0
   -4.7393   29.3930    8.0209 C   0  0  0  0  0  0  0  0  0  0  0  0
   -5.8281   25.1862    3.3345 C   0  0  0  0  0  0  0  0  0  0  0  0
   -6.1561   24.2435    2.3551 C   0  0  0  0  0  0  0  0  0  0  0  0
   -6.9696   23.1521    2.6688 C   0  0  0  0  0  0  0  0  0  0  0  0
   -7.4535   23.0258    3.9591 C   0  0  0  0  0  0  0  0  0  0  0  0
   -8.4569   21.7072    4.3988 Cl  0  0  0  0  0  0  0  0  0  0  0  0
   -7.1089   24.0006    4.8759 C   0  0  0  0  0  0  0  0  0  0  0  0
   -6.3202   25.0672    4.5882 N   0  0  0  0  0  0  0  0  0  0  0  0
  1  2  2  0  0  0
  2  9  1  0  0  0
  9 10  2  0  0  0
 10 11  1  0  0  0
 11 12  2  0  0  0
 12 13  1  0  0  0
 13 14  1  0  0  0
 13 15  2  0  0  0
  2  3  1  0  0  0
  3  4  1  0  0  0
  4  5  1  0  0  0
  5  6  1  0  0  0
  6 16  1  0  0  0
 16 17  2  0  0  0
 17 18  1  0  0  0
 18 19  2  0  0  0
 19 20  1  0  0  0
 19 21  1  0  0  0
 21 22  2  0  0  0
  6  7  1  0  0  0
  7  8  1  0  0  0
 15  9  1  0  0  0
  8  3  1  0  0  0
 22 16  1  0  0  0
M  END
> <minimizedAffinity>
-7.94545

$$$$
OCNT-2310292


 26 28  0  0  0  0  0  0  0  0999 V2000
   -5.1050   27.2098    5.0544 O   0  0  0  0  0  0  0  0  0  0  0  0
   -4.0528   26.5788    5.0169 C   0  0  0  0  0  0  0  0  0  0  0  0
   -3.8690   25.4061    4.3177 N   0  0  0  0  0  0  0  0  0  0  0  0
   -2.9262   26.9904    5.7356 N   0  0  0  0  0  0  0  0  0  0  0  0
   -1.5572   26.7604    5.2545 C   0  0  0  0  0  0  0  0  0  0  0  0
   -0.5312   26.9581    6.3730 C   0  0  0  0  0  0  0  0  0  0  0  0
   -0.6687   28.2458    6.9828 O   0  0  0  0  0  0  0  0  0  0  0  0
   -1.9756   28.3928    7.5797 C   0  0  0  0  0  0  0  0  0  0  0  0
   -3.0718   28.2365    6.5034 C   0  0  0  0  0  0  0  0  0  0  0  0
   -3.1602   24.7967    4.6944 H   0  0  0  0  0  0  0  0  0  0  0  0
   -4.7503   24.8280    3.3807 C   0  0  0  0  0  0  0  0  0  0  0  0
   -5.6818   23.8372    3.7017 C   0  0  0  0  0  0  0  0  0  0  0  0
   -6.5387   23.3180    2.7224 C   0  0  0  0  0  0  0  0  0  0  0  0
   -6.4815   23.7894    1.4050 C   0  0  0  0  0  0  0  0  0  0  0  0
   -5.5586   24.7843    1.1002 C   0  0  0  0  0  0  0  0  0  0  0  0
   -5.4809   25.2638   -0.1485 F   0  0  0  0  0  0  0  0  0  0  0  0
   -4.7020   25.3064    2.0687 C   0  0  0  0  0  0  0  0  0  0  0  0
   -7.3789   23.2630    0.3266 C   0  0  0  0  0  0  0  0  0  0  0  0
   -6.6954   22.6839   -0.7026 F   0  0  0  0  0  0  0  0  0  0  0  0
   -8.2399   22.3078    0.7738 F   0  0  0  0  0  0  0  0  0  0  0  0
   -8.1463   24.2311   -0.2454 F   0  0  0  0  0  0  0  0  0  0  0  0
   -2.0884   29.7176    8.2928 C   0  0  0  0  0  0  0  0  0  0  0  0
   -3.2738   30.3780    8.5665 C   0  0  0  0  0  0  0  0  0  0  0  0
   -3.0410   31.8509    9.4013 S   0  0  0  0  0  0  0  0  0  0  0  0
   -1.3466   31.6382    9.4116 C   0  0  0  0  0  0  0  0  0  0  0  0
   -0.9693   30.4679    8.7913 C   0  0  0  0  0  0  0  0  0  0  0  0
  1  2  2  0  0  0
  2  3  1  0  0  0
  3 11  1  0  0  0
 11 12  1  0  0  0
 12 13  2  0  0  0
 13 14  1  0  0  0
 14 18  1  0  0  0
 18 19  1  0  0  0
 18 20  1  0  0  0
 18 21  1  0  0  0
 14 15  2  0  0  0
 15 16  1  0  0  0
 15 17  1  0  0  0
  2  4  1  0  0  0
  4  5  1  0  0  0
  5  6  1  0  0  0
  6  7  1  0  0  0
  7  8  1  0  0  0
  8 22  1  0  0  0
 22 23  2  0  0  0
 23 24  1  0  0  0
 24 25  1  0  0  0
 25 26  2  0  0  0
  8  9  1  0  0  0
 17 11  2  0  0  0
  9  4  1  0  0  0
 26 22  1  0  0  0
  3 10  1  0  0  0
M  END
> <minimizedAffinity>
-9.65708

$$$$
OCNT-2310303


 29 31  0  0  0  0  0  0  0  0999 V2000
   -5.6818   26.8934    3.6558 C   0  0  0  0  0  0  0  0  0  0  0  0
   -6.1183   27.0670    4.9529 C   0  0  0  0  0  0  0  0  0  0  0  0
   -6.3718   28.4046    5.0526 N   0  0  0  0  0  0  0  0  0  0  0  0
   -6.1759   29.0189    3.8681 N   0  0  0  0  0  0  0  0  0  0  0  0
   -5.7231   28.1120    3.0154 N   0  0  0  0  0  0  0  0  0  0  0  0
   -5.7783   25.6202    1.5099 C   0  0  0  0  0  0  0  0  0  0  0  0
   -5.1773   25.6671    2.9332 C   0  0  0  0  0  0  0  0  0  0  0  0
   -5.5739   24.3485    3.6258 C   0  0  0  0  0  0  0  0  0  0  0  0
   -3.7206   25.8203    2.7941 N   0  0  0  0  0  0  0  0  0  0  0  0
   -2.8670   25.9139    3.8526 C   0  0  0  0  0  0  0  0  0  0  0  0
   -1.6137   26.2814    3.4772 N   0  0  0  0  0  0  0  0  0  0  0  0
   -3.1178   25.6635    5.0212 O   0  0  0  0  0  0  0  0  0  0  0  0
   -3.4480   26.3873    2.0055 H   0  0  0  0  0  0  0  0  0  0  0  0
   -1.0085   26.4555    4.2699 H   0  0  0  0  0  0  0  0  0  0  0  0
   -1.5207   26.9496    2.7286 H   0  0  0  0  0  0  0  0  0  0  0  0
   -6.9308   29.1565    6.1635 C   0  0  0  0  0  0  0  0  0  0  0  0
   -5.9731   29.2706    7.3036 C   0  0  0  0  0  0  0  0  0  0  0  0
   -4.6761   29.4567    7.1756 N   0  0  0  0  0  0  0  0  0  0  0  0
   -4.0646   29.4999    8.4179 C   0  0  0  0  0  0  0  0  0  0  0  0
   -4.9304   29.3782    9.4875 C   0  0  0  0  0  0  0  0  0  0  0  0
   -6.5401   29.1961    8.9281 S   0  0  0  0  0  0  0  0  0  0  0  0
   -2.6248   29.6636    8.5442 C   0  0  0  0  0  0  0  0  0  0  0  0
   -1.7540   28.6331    8.1738 C   0  0  0  0  0  0  0  0  0  0  0  0
   -2.2205   27.4907    7.6460 F   0  0  0  0  0  0  0  0  0  0  0  0
   -0.3703   28.7647    8.3089 C   0  0  0  0  0  0  0  0  0  0  0  0
    0.1716   29.9412    8.8212 C   0  0  0  0  0  0  0  0  0  0  0  0
   -0.6775   30.9812    9.1934 C   0  0  0  0  0  0  0  0  0  0  0  0
   -2.0585   30.8371    9.0532 C   0  0  0  0  0  0  0  0  0  0  0  0
   -2.8338   31.8671    9.4298 F   0  0  0  0  0  0  0  0  0  0  0  0
  6  7  1  0  0  0
  7  8  1  0  0  0
  7  9  1  0  0  0
  9 10  1  0  0  0
 10 11  1  0  0  0
 10 12  2  0  0  0
  7  1  1  0  0  0
  1  2  2  0  0  0
  2  3  1  0  0  0
  3 16  1  0  0  0
 16 17  1  0  0  0
 17 18  2  0  0  0
 18 19  1  0  0  0
 19 22  1  0  0  0
 22 23  2  0  0  0
 23 24  1  0  0  0
 23 25  1  0  0  0
 25 26  2  0  0  0
 26 27  1  0  0  0
 27 28  2  0  0  0
 28 29  1  0  0  0
 19 20  2  0  0  0
 20 21  1  0  0  0
  3  4  1  0  0  0
  4  5  2  0  0  0
  5  1  1  0  0  0
 21 17  1  0  0  0
 28 22  1  0  0  0
  9 13  1  0  0  0
 11 14  1  0  0  0
 11 15  1  0  0  0
M  END
> <minimizedAffinity>
-8.87395

$$$$
OCNT-2310304


 27 30  0  0  0  0  0  0  0  0999 V2000
   -6.5061   28.8972    5.6941 O   0  0  0  0  0  0  0  0  0  0  0  0
   -6.3360   29.3804   10.5264 C   0  0  0  0  0  0  0  0  0  0  0  0
   -5.6991   29.2360    9.1789 C   0  0  0  0  0  0  0  0  0  0  0  0
   -6.4769   29.1094    8.0503 C   0  0  0  0  0  0  0  0  0  0  0  0
   -5.7878   28.9752    6.8682 C   0  0  0  0  0  0  0  0  0  0  0  0
   -4.4486   28.9878    6.7590 N   0  0  0  0  0  0  0  0  0  0  0  0
   -3.7702   29.1174    7.9105 C   0  0  0  0  0  0  0  0  0  0  0  0
   -4.3512   29.2332    9.1244 N   0  0  0  0  0  0  0  0  0  0  0  0
   -2.3029   29.1410    7.8480 C   0  0  0  0  0  0  0  0  0  0  0  0
   -1.5226   29.9356    8.7032 C   0  0  0  0  0  0  0  0  0  0  0  0
   -0.1307   29.9361    8.6075 C   0  0  0  0  0  0  0  0  0  0  0  0
    0.4601   29.1342    7.6482 C   0  0  0  0  0  0  0  0  0  0  0  0
   -0.2371   28.3518    6.8013 N   0  0  0  0  0  0  0  0  0  0  0  0
   -1.5914   28.3736    6.9238 C   0  0  0  0  0  0  0  0  0  0  0  0
   -6.1380   27.9142    4.8078 C   0  0  0  0  0  0  0  0  0  0  0  0
   -6.2178   26.6051    5.2767 C   0  0  0  0  0  0  0  0  0  0  0  0
   -5.8576   25.5508    4.4401 C   0  0  0  0  0  0  0  0  0  0  0  0
   -5.4436   25.8461    3.1464 C   0  0  0  0  0  0  0  0  0  0  0  0
   -5.3494   27.1024    2.6622 N   0  0  0  0  0  0  0  0  0  0  0  0
   -5.7142   28.1069    3.4968 C   0  0  0  0  0  0  0  0  0  0  0  0
   -5.0242   24.8466    2.2938 O   0  0  0  0  0  0  0  0  0  0  0  0
   -5.9425   24.4244    1.3591 C   0  0  0  0  0  0  0  0  0  0  0  0
   -6.2837   25.1907    0.2420 C   0  0  0  0  0  0  0  0  0  0  0  0
   -7.1982   24.6910   -0.6862 C   0  0  0  0  0  0  0  0  0  0  0  0
   -7.7579   23.4254   -0.5049 C   0  0  0  0  0  0  0  0  0  0  0  0
   -7.4008   22.6542    0.6010 C   0  0  0  0  0  0  0  0  0  0  0  0
   -6.4849   23.1488    1.5298 C   0  0  0  0  0  0  0  0  0  0  0  0
  2  3  1  0  0  0
  3  4  1  0  0  0
  4  5  2  0  0  0
  5  1  1  0  0  0
  1 15  1  0  0  0
 15 16  2  0  0  0
 16 17  1  0  0  0
 17 18  2  0  0  0
 18 21  1  0  0  0
 21 22  1  0  0  0
 22 23  2  0  0  0
 23 24  1  0  0  0
 24 25  2  0  0  0
 25 26  1  0  0  0
 26 27  2  0  0  0
 18 19  1  0  0  0
 19 20  2  0  0  0
  5  6  1  0  0  0
  6  7  2  0  0  0
  7  9  1  0  0  0
  9 10  1  0  0  0
 10 11  2  0  0  0
 11 12  1  0  0  0
 12 13  2  0  0  0
 13 14  1  0  0  0
  7  8  1  0  0  0
  8  3  2  0  0  0
 20 15  1  0  0  0
 14  9  2  0  0  0
 27 22  1  0  0  0
M  END
> <minimizedAffinity>
-10.40370

$$$$
OCNT-2310310


 23 25  0  0  0  0  0  0  0  0999 V2000
   -2.8050   27.7854    7.6117 N   0  0  0  0  0  0  0  0  0  0  0  0
   -3.7144   28.0314    8.0037 H   0  0  0  0  0  0  0  0  0  0  0  0
   -1.8630   28.7378    8.0728 C   0  0  0  0  0  0  0  0  0  0  0  0
   -0.5511   28.4184    8.0642 N   0  0  0  0  0  0  0  0  0  0  0  0
    0.2869   29.3138    8.5917 C   0  0  0  0  0  0  0  0  0  0  0  0
   -0.0543   30.4924    9.1224 N   0  0  0  0  0  0  0  0  0  0  0  0
   -1.3640   30.7829    9.1201 C   0  0  0  0  0  0  0  0  0  0  0  0
   -1.7874   31.9910    9.6547 C   0  0  0  0  0  0  0  0  0  0  0  0
   -3.1353   32.3423    9.6702 C   0  0  0  0  0  0  0  0  0  0  0  0
   -4.0414   31.4528    9.1322 C   0  0  0  0  0  0  0  0  0  0  0  0
   -3.6845   30.2690    8.5967 N   0  0  0  0  0  0  0  0  0  0  0  0
   -2.3570   29.9394    8.6041 C   0  0  0  0  0  0  0  0  0  0  0  0
   -2.8313   27.5000    6.1842 C   0  0  0  0  0  0  0  0  0  0  0  0
   -2.2473   26.1153    5.8971 C   0  0  0  0  0  0  0  0  0  0  0  0
   -1.6531   25.9887    4.4900 C   0  0  0  0  0  0  0  0  0  0  0  0
   -2.7460   26.1093    3.4179 C   0  0  0  0  0  0  0  0  0  0  0  0
   -4.7048   22.9223    3.0473 C   0  0  0  0  0  0  0  0  0  0  0  0
   -3.9260   24.1542    2.5634 C   0  0  0  0  0  0  0  0  0  0  0  0
   -4.4759   24.6807    1.2245 C   0  0  0  0  0  0  0  0  0  0  0  0
   -5.8064   25.4112    1.3781 C   0  0  0  0  0  0  0  0  0  0  0  0
   -5.7238   26.4659    2.4749 C   0  0  0  0  0  0  0  0  0  0  0  0
   -5.1749   25.8741    3.7737 C   0  0  0  0  0  0  0  0  0  0  0  0
   -3.8807   25.1880    3.6227 N   0  0  0  0  0  0  0  0  0  0  0  0
 17 18  1  0  0  0
 18 19  1  0  0  0
 19 20  1  0  0  0
 20 21  1  0  0  0
 21 22  1  0  0  0
 22 23  1  0  0  0
 23 16  1  0  0  0
 16 15  1  0  0  0
 15 14  1  0  0  0
 14 13  1  0  0  0
 13  1  1  0  0  0
  1  3  1  0  0  0
  3  4  1  0  0  0
  4  5  2  0  0  0
  5  6  1  0  0  0
  6  7  2  0  0  0
  7  8  1  0  0  0
  8  9  2  0  0  0
  9 10  1  0  0  0
 10 11  2  0  0  0
 11 12  1  0  0  0
 23 18  1  0  0  0
 12  3  2  0  0  0
 12  7  1  0  0  0
  1  2  1  0  0  0
M  END
> <minimizedAffinity>
-8.36214

$$$$
OCNT-2310311


 27 30  0  0  0  0  0  0  0  0999 V2000
   -4.1520   27.9957    4.9628 N   0  0  0  0  0  0  0  0  0  0  0  0
   -4.9189   28.6696    4.9146 H   0  0  0  0  0  0  0  0  0  0  0  0
   -7.5435   22.1776    0.8736 O   0  0  0  0  0  0  0  0  0  0  0  0
   -6.9276   23.3019    1.3397 C   0  0  0  0  0  0  0  0  0  0  0  0
   -6.3668   24.2307    0.4710 C   0  0  0  0  0  0  0  0  0  0  0  0
   -5.7369   25.3619    0.9933 C   0  0  0  0  0  0  0  0  0  0  0  0
   -5.6656   25.5664    2.3817 C   0  0  0  0  0  0  0  0  0  0  0  0
   -5.0013   26.8178    2.9091 C   0  0  0  0  0  0  0  0  0  0  0  0
   -4.5947   26.7082    4.3935 C   0  0  0  0  0  0  0  0  0  0  0  0
   -5.8065   26.2060    5.1948 C   0  0  0  0  0  0  0  0  0  0  0  0
   -6.1924   24.7950    4.7470 C   0  0  0  0  0  0  0  0  0  0  0  0
   -6.2593   24.6321    3.2501 C   0  0  0  0  0  0  0  0  0  0  0  0
   -6.8766   23.4913    2.7162 C   0  0  0  0  0  0  0  0  0  0  0  0
   -7.5583   22.2161   -0.0977 H   0  0  0  0  0  0  0  0  0  0  0  0
   -3.6957   27.9221    6.3551 C   0  0  0  0  0  0  0  0  0  0  0  0
   -2.2252   27.6748    6.4201 C   0  0  0  0  0  0  0  0  0  0  0  0
   -1.5430   26.5426    6.0194 C   0  0  0  0  0  0  0  0  0  0  0  0
   -0.2236   26.7866    6.2549 N   0  0  0  0  0  0  0  0  0  0  0  0
    0.0146   28.0015    6.7605 N   0  0  0  0  0  0  0  0  0  0  0  0
   -1.2013   28.5509    6.9005 C   0  0  0  0  0  0  0  0  0  0  0  0
    0.5675   26.1755    6.0820 H   0  0  0  0  0  0  0  0  0  0  0  0
   -1.3588   29.8859    7.4621 C   0  0  0  0  0  0  0  0  0  0  0  0
   -0.9735   30.1456    8.7825 C   0  0  0  0  0  0  0  0  0  0  0  0
   -1.1606   31.4165    9.3292 C   0  0  0  0  0  0  0  0  0  0  0  0
   -1.7378   32.4305    8.5617 C   0  0  0  0  0  0  0  0  0  0  0  0
   -2.1196   32.1792    7.2461 C   0  0  0  0  0  0  0  0  0  0  0  0
   -1.9236   30.9118    6.6926 C   0  0  0  0  0  0  0  0  0  0  0  0
  3  4  1  0  0  0
  4  5  1  0  0  0
  5  6  2  0  0  0
  6  7  1  0  0  0
  7  8  1  0  0  0
  8  9  1  0  0  0
  9  1  1  0  0  0
  1 15  1  0  0  0
 15 16  1  0  0  0
 16 17  2  0  0  0
 17 18  1  0  0  0
 18 19  1  0  0  0
 19 20  2  0  0  0
 20 22  1  0  0  0
 22 23  2  0  0  0
 23 24  1  0  0  0
 24 25  2  0  0  0
 25 26  1  0  0  0
 26 27  2  0  0  0
  9 10  1  0  0  0
 10 11  1  0  0  0
 11 12  1  0  0  0
 12 13  1  0  0  0
 13  4  2  0  0  0
 12  7  2  0  0  0
 20 16  1  0  0  0
 27 22  1  0  0  0
  3 14  1  0  0  0
  1  2  1  0  0  0
 18 21  1  0  0  0
M  END
> <minimizedAffinity>
-10.16786

$$$$
OCNT-2310312


 35 40  0  0  0  0  0  0  0  0999 V2000
   -4.0664   25.3798    3.9399 C   0  0  0  0  0  0  0  0  0  0  0  0
   -2.9672   25.2181    3.0648 C   0  0  0  0  0  0  0  0  0  0  0  0
   -1.7128   25.7349    3.4041 C   0  0  0  0  0  0  0  0  0  0  0  0
   -1.6074   26.3857    4.6196 C   0  0  0  0  0  0  0  0  0  0  0  0
   -0.4544   27.0247    5.2526 C   0  0  0  0  0  0  0  0  0  0  0  0
    0.6520   27.0883    4.7522 O   0  0  0  0  0  0  0  0  0  0  0  0
   -0.8921   27.5072    6.4541 N   0  0  0  0  0  0  0  0  0  0  0  0
   -2.2210   27.2573    6.6546 C   0  0  0  0  0  0  0  0  0  0  0  0
   -2.9298   27.5648    7.5934 O   0  0  0  0  0  0  0  0  0  0  0  0
   -2.6867   26.5268    5.4774 C   0  0  0  0  0  0  0  0  0  0  0  0
   -3.9373   26.0292    5.1728 C   0  0  0  0  0  0  0  0  0  0  0  0
   -7.3561   22.4240    3.0978 C   0  0  0  0  0  0  0  0  0  0  0  0
   -7.3933   23.5456    4.1424 C   0  0  0  0  0  0  0  0  0  0  0  0
   -8.1161   23.0755    5.3624 C   0  0  0  0  0  0  0  0  0  0  0  0
   -7.5434   22.5784    6.5105 C   0  0  0  0  0  0  0  0  0  0  0  0
   -6.0695   22.5193    6.6181 C   0  0  0  0  0  0  0  0  0  0  0  0
   -5.4786   23.7274    5.8683 C   0  0  0  0  0  0  0  0  0  0  0  0
   -6.0169   23.9739    4.5026 N   0  0  0  0  0  0  0  0  0  0  0  0
   -5.3727   24.8000    3.5800 C   0  0  0  0  0  0  0  0  0  0  0  0
   -5.8167   25.0866    2.4720 O   0  0  0  0  0  0  0  0  0  0  0  0
   -8.5838   22.2250    7.4057 C   0  0  0  0  0  0  0  0  0  0  0  0
   -8.6295   21.6775    8.7020 C   0  0  0  0  0  0  0  0  0  0  0  0
   -9.8709   21.4543    9.3089 C   0  0  0  0  0  0  0  0  0  0  0  0
  -11.0543   21.7690    8.6444 C   0  0  0  0  0  0  0  0  0  0  0  0
  -11.0355   22.3151    7.3576 C   0  0  0  0  0  0  0  0  0  0  0  0
   -9.7870   22.5327    6.7627 C   0  0  0  0  0  0  0  0  0  0  0  0
   -9.4740   23.0519    5.5229 N   0  0  0  0  0  0  0  0  0  0  0  0
  -10.1553   23.3569    4.8412 H   0  0  0  0  0  0  0  0  0  0  0  0
   -0.0668   28.2621    7.3693 C   0  0  0  0  0  0  0  0  0  0  0  0
   -0.6387   29.6354    7.6180 C   0  0  0  0  0  0  0  0  0  0  0  0
   -0.6455   30.1850    8.9035 C   0  0  0  0  0  0  0  0  0  0  0  0
   -1.2123   31.4361    9.0874 C   0  0  0  0  0  0  0  0  0  0  0  0
   -1.7693   32.1616    8.0944 N   0  0  0  0  0  0  0  0  0  0  0  0
   -1.7629   31.6093    6.8626 C   0  0  0  0  0  0  0  0  0  0  0  0
   -1.2211   30.3661    6.5779 C   0  0  0  0  0  0  0  0  0  0  0  0
 12 13  1  0  0  0
 13 14  1  0  0  0
 14 15  2  0  0  0
 15 16  1  0  0  0
 16 17  1  0  0  0
 17 18  1  0  0  0
 18 19  1  0  0  0
 19 20  2  0  0  0
 19  1  1  0  0  0
  1  2  1  0  0  0
  2  3  2  0  0  0
  3  4  1  0  0  0
  4  5  1  0  0  0
  5  6  2  0  0  0
  5  7  1  0  0  0
  7 29  1  0  0  0
 29 30  1  0  0  0
 30 31  2  0  0  0
 31 32  1  0  0  0
 32 33  2  0  0  0
 33 34  1  0  0  0
 34 35  2  0  0  0
  7  8  1  0  0  0
  8  9  2  0  0  0
  8 10  1  0  0  0
 10 11  1  0  0  0
 15 21  1  0  0  0
 21 22  2  0  0  0
 22 23  1  0  0  0
 23 24  2  0  0  0
 24 25  1  0  0  0
 25 26  2  0  0  0
 26 27  1  0  0  0
 18 13  1  0  0  0
 11  1  2  0  0  0
 26 21  1  0  0  0
 27 14  1  0  0  0
 10  4  2  0  0  0
 35 30  1  0  0  0
 27 28  1  0  0  0
M  END
> <minimizedAffinity>
-11.17040

$$$$
OCNT-2310324


 24 27  0  0  0  0  0  0  0  0999 V2000
   -5.4193   29.8631    7.0031 O   0  0  0  0  0  0  0  0  0  0  0  0
   -4.5858   28.9797    6.8244 C   0  0  0  0  0  0  0  0  0  0  0  0
   -4.8759   27.8037    6.1789 N   0  0  0  0  0  0  0  0  0  0  0  0
   -4.1274   27.1677    5.9517 H   0  0  0  0  0  0  0  0  0  0  0  0
   -3.2140   29.1165    7.2785 C   0  0  0  0  0  0  0  0  0  0  0  0
   -2.6848   29.5344    8.4996 C   0  0  0  0  0  0  0  0  0  0  0  0
   -1.2953   29.4505    8.3217 C   0  0  0  0  0  0  0  0  0  0  0  0
   -0.9833   29.0175    7.0861 C   0  0  0  0  0  0  0  0  0  0  0  0
    0.4186   28.9530    6.9622 C   0  0  0  0  0  0  0  0  0  0  0  0
    0.8515   29.3755    8.2001 C   0  0  0  0  0  0  0  0  0  0  0  0
   -0.1733   29.6854    9.0481 O   0  0  0  0  0  0  0  0  0  0  0  0
   -2.1592   28.8073    6.4245 N   0  0  0  0  0  0  0  0  0  0  0  0
   -2.2421   28.4803    5.4691 H   0  0  0  0  0  0  0  0  0  0  0  0
   -6.1633   27.5562    5.5736 C   0  0  0  0  0  0  0  0  0  0  0  0
   -6.0554   26.5540    4.4608 C   0  0  0  0  0  0  0  0  0  0  0  0
   -6.2467   25.1903    4.6987 C   0  0  0  0  0  0  0  0  0  0  0  0
   -6.1621   24.2673    3.6479 C   0  0  0  0  0  0  0  0  0  0  0  0
   -5.8912   24.6651    2.3252 C   0  0  0  0  0  0  0  0  0  0  0  0
   -5.7135   26.0421    2.1088 C   0  0  0  0  0  0  0  0  0  0  0  0
   -5.7982   26.9614    3.1545 C   0  0  0  0  0  0  0  0  0  0  0  0
   -5.6324   28.2641    2.8819 F   0  0  0  0  0  0  0  0  0  0  0  0
   -5.7914   23.6987    1.1589 C   0  0  0  0  0  0  0  0  0  0  0  0
   -6.3950   22.3170    1.2303 C   0  0  0  0  0  0  0  0  0  0  0  0
   -7.0023   23.3519    0.3267 C   0  0  0  0  0  0  0  0  0  0  0  0
  1  2  2  0  0  0
  2  3  1  0  0  0
  3 14  1  0  0  0
 14 15  1  0  0  0
 15 16  1  0  0  0
 16 17  2  0  0  0
 17 18  1  0  0  0
 18 22  1  0  0  0
 22 23  1  0  0  0
 23 24  1  0  0  0
 18 19  2  0  0  0
 19 20  1  0  0  0
 20 21  1  0  0  0
  2  5  1  0  0  0
  5  6  2  0  0  0
  6  7  1  0  0  0
  7  8  2  0  0  0
  8  9  1  0  0  0
  9 10  2  0  0  0
 10 11  1  0  0  0
  8 12  1  0  0  0
 20 15  2  0  0  0
 12  5  1  0  0  0
 24 22  1  0  0  0
 11  7  1  0  0  0
  3  4  1  0  0  0
 12 13  1  0  0  0
M  END
> <minimizedAffinity>
-9.19766

$$$$
OCNT-2310336


 30 33  0  0  0  0  0  0  0  0999 V2000
   -6.5221   29.4432    3.9820 O   0  0  0  0  0  0  0  0  0  0  0  0
   -5.7159   28.8269    4.6834 C   0  0  0  0  0  0  0  0  0  0  0  0
   -5.1942   27.6059    4.2653 N   0  0  0  0  0  0  0  0  0  0  0  0
   -4.0832   26.8919    4.8998 C   0  0  0  0  0  0  0  0  0  0  0  0
   -3.2174   26.1669    3.8748 C   0  0  0  0  0  0  0  0  0  0  0  0
   -4.0162   25.1454    3.0623 C   0  0  0  0  0  0  0  0  0  0  0  0
   -5.5004   25.5322    2.9091 C   0  0  0  0  0  0  0  0  0  0  0  0
   -5.6956   27.0556    2.9984 C   0  0  0  0  0  0  0  0  0  0  0  0
   -6.1203   24.9287    1.6652 C   0  0  0  0  0  0  0  0  0  0  0  0
   -6.1118   25.6416    0.4548 C   0  0  0  0  0  0  0  0  0  0  0  0
   -6.6786   25.0955   -0.7031 C   0  0  0  0  0  0  0  0  0  0  0  0
   -7.2639   23.8300   -0.6715 C   0  0  0  0  0  0  0  0  0  0  0  0
   -7.2781   23.1201    0.5197 C   0  0  0  0  0  0  0  0  0  0  0  0
   -7.8570   21.8826    0.5365 O   0  0  0  0  0  0  0  0  0  0  0  0
   -6.7145   23.6618    1.6740 C   0  0  0  0  0  0  0  0  0  0  0  0
   -6.7622   22.9430    2.8065 F   0  0  0  0  0  0  0  0  0  0  0  0
   -7.7534   21.5357    1.4425 H   0  0  0  0  0  0  0  0  0  0  0  0
   -5.2810   29.3842    6.0421 C   0  0  0  0  0  0  0  0  0  0  0  0
   -6.0034   28.6535    7.1869 C   0  0  0  0  0  0  0  0  0  0  0  0
   -5.5209   29.1417    8.5484 C   0  0  0  0  0  0  0  0  0  0  0  0
   -4.0758   28.9875    8.6829 N   0  0  0  0  0  0  0  0  0  0  0  0
   -3.3468   29.7204    7.6413 C   0  0  0  0  0  0  0  0  0  0  0  0
   -3.7659   29.2469    6.2398 C   0  0  0  0  0  0  0  0  0  0  0  0
   -3.7742   29.3241    9.5968 H   0  0  0  0  0  0  0  0  0  0  0  0
   -1.8454   29.5799    7.8285 C   0  0  0  0  0  0  0  0  0  0  0  0
   -1.0883   28.8226    6.9209 C   0  0  0  0  0  0  0  0  0  0  0  0
    0.2903   28.6764    7.0918 C   0  0  0  0  0  0  0  0  0  0  0  0
    0.9291   29.2830    8.1715 C   0  0  0  0  0  0  0  0  0  0  0  0
    0.1913   30.0359    9.0820 C   0  0  0  0  0  0  0  0  0  0  0  0
   -1.1864   30.1824    8.9128 C   0  0  0  0  0  0  0  0  0  0  0  0
  1  2  2  0  0  0
  2 18  1  0  0  0
 18 19  1  0  0  0
 19 20  1  0  0  0
 20 21  1  0  0  0
 21 22  1  0  0  0
 22 25  1  0  0  0
 25 26  2  0  0  0
 26 27  1  0  0  0
 27 28  2  0  0  0
 28 29  1  0  0  0
 29 30  2  0  0  0
 22 23  1  0  0  0
  2  3  1  0  0  0
  3  4  1  0  0  0
  4  5  1  0  0  0
  5  6  1  0  0  0
  6  7  1  0  0  0
  7  9  1  0  0  0
  9 10  2  0  0  0
 10 11  1  0  0  0
 11 12  2  0  0  0
 12 13  1  0  0  0
 13 14  1  0  0  0
 13 15  2  0  0  0
 15 16  1  0  0  0
  7  8  1  0  0  0
 23 18  1  0  0  0
  8  3  1  0  0  0
 30 25  1  0  0  0
 15  9  1  0  0  0
 21 24  1  0  0  0
 14 17  1  0  0  0
M  END
> <minimizedAffinity>
-11.10197

$$$$
OCNT-2310337


 30 33  0  0  0  0  0  0  0  0999 V2000
   -6.6537   28.7730    6.6418 C   0  0  0  0  0  0  0  0  0  0  0  0
   -7.3729   29.7537    6.4860 O   0  0  0  0  0  0  0  0  0  0  0  0
   -5.9928   28.5168    7.8296 N   0  0  0  0  0  0  0  0  0  0  0  0
   -5.1461   27.9716    7.7526 H   0  0  0  0  0  0  0  0  0  0  0  0
   -5.5618   25.0858    1.9259 C   0  0  0  0  0  0  0  0  0  0  0  0
   -5.7430   24.1075    2.9043 C   0  0  0  0  0  0  0  0  0  0  0  0
   -6.0386   24.4508    4.2311 C   0  0  0  0  0  0  0  0  0  0  0  0
   -6.1377   25.8110    4.5423 C   0  0  0  0  0  0  0  0  0  0  0  0
   -6.4197   26.4346    5.7355 N   0  0  0  0  0  0  0  0  0  0  0  0
   -6.4006   27.8054    5.5955 C   0  0  0  0  0  0  0  0  0  0  0  0
   -6.1398   28.0538    4.2575 C   0  0  0  0  0  0  0  0  0  0  0  0
   -5.9587   26.8124    3.5917 C   0  0  0  0  0  0  0  0  0  0  0  0
   -5.6651   26.4425    2.2659 C   0  0  0  0  0  0  0  0  0  0  0  0
   -6.6459   25.9480    6.5905 H   0  0  0  0  0  0  0  0  0  0  0  0
   -6.2530   25.2564   -0.3446 C   0  0  0  0  0  0  0  0  0  0  0  0
   -5.2748   24.8565    0.6067 O   0  0  0  0  0  0  0  0  0  0  0  0
   -6.0189   29.5067    8.8981 C   0  0  0  0  0  0  0  0  0  0  0  0
   -4.7259   30.3336    8.9750 C   0  0  0  0  0  0  0  0  0  0  0  0
   -4.9906   31.7974    9.3408 C   0  0  0  0  0  0  0  0  0  0  0  0
   -3.7580   32.4939    8.7832 C   0  0  0  0  0  0  0  0  0  0  0  0
   -3.5917   31.7815    7.4329 C   0  0  0  0  0  0  0  0  0  0  0  0
   -4.0683   30.3947    7.6447 N   0  0  0  0  0  0  0  0  0  0  0  0
   -2.9934   29.4910    7.5154 C   0  0  0  0  0  0  0  0  0  0  0  0
   -1.9755   29.5676    8.4500 C   0  0  0  0  0  0  0  0  0  0  0  0
   -0.9490   28.6622    8.3191 C   0  0  0  0  0  0  0  0  0  0  0  0
   -0.9054   27.7300    7.3516 N   0  0  0  0  0  0  0  0  0  0  0  0
   -1.9449   27.7303    6.5052 C   0  0  0  0  0  0  0  0  0  0  0  0
   -2.9917   28.5700    6.5335 N   0  0  0  0  0  0  0  0  0  0  0  0
   -3.9523   33.8903    8.5950 O   0  0  0  0  0  0  0  0  0  0  0  0
   -5.1263   34.1941    7.8529 C   0  0  0  0  0  0  0  0  0  0  0  0
 15 16  1  0  0  0
 16  5  1  0  0  0
  5  6  2  0  0  0
  6  7  1  0  0  0
  7  8  2  0  0  0
  8  9  1  0  0  0
  9 10  1  0  0  0
 10  1  1  0  0  0
  1  2  2  0  0  0
  1  3  1  0  0  0
  3 17  1  0  0  0
 17 18  1  0  0  0
 18 19  1  0  0  0
 19 20  1  0  0  0
 20 29  1  0  0  0
 29 30  1  0  0  0
 20 21  1  0  0  0
 21 22  1  0  0  0
 22 23  1  0  0  0
 23 24  1  0  0  0
 24 25  2  0  0  0
 25 26  1  0  0  0
 26 27  2  0  0  0
 27 28  1  0  0  0
 10 11  2  0  0  0
 11 12  1  0  0  0
 12 13  2  0  0  0
 13  5  1  0  0  0
 12  8  1  0  0  0
 22 18  1  0  0  0
 28 23  2  0  0  0
  9 14  1  0  0  0
  3  4  1  0  0  0
M  END
> <minimizedAffinity>
-9.59384

$$$$
OCNT-2310340


 25 27  0  0  0  0  0  0  0  0999 V2000
   -3.7712   29.8030    7.2466 C   0  0  0  0  0  0  0  0  0  0  0  0
   -6.7609   30.3581    7.2457 C   0  0  0  0  0  0  0  0  0  0  0  0
   -5.9678   30.2857    8.4669 N   0  0  0  0  0  0  0  0  0  0  0  0
   -6.6573   30.7056    9.6783 C   0  0  0  0  0  0  0  0  0  0  0  0
   -4.5769   30.1674    8.5224 C   0  0  0  0  0  0  0  0  0  0  0  0
   -3.9667   30.3607    9.5803 O   0  0  0  0  0  0  0  0  0  0  0  0
   -3.3063   28.3988    7.3379 N   0  0  0  0  0  0  0  0  0  0  0  0
   -3.6802   27.9168    8.1521 H   0  0  0  0  0  0  0  0  0  0  0  0
   -3.3040   27.6484    6.2062 C   0  0  0  0  0  0  0  0  0  0  0  0
   -2.3183   26.8963    5.7647 N   0  0  0  0  0  0  0  0  0  0  0  0
   -2.6221   26.2541    4.5819 N   0  0  0  0  0  0  0  0  0  0  0  0
   -3.8369   26.5440    4.1644 C   0  0  0  0  0  0  0  0  0  0  0  0
   -4.6922   27.6201    5.1867 S   0  0  0  0  0  0  0  0  0  0  0  0
   -4.4259   25.9432    2.8429 C   0  0  0  0  0  0  0  0  0  0  0  0
   -3.6986   25.2434    1.9617 N   0  0  0  0  0  0  0  0  0  0  0  0
   -4.5776   24.8958    0.9480 O   0  0  0  0  0  0  0  0  0  0  0  0
   -5.8092   25.3866    1.2324 C   0  0  0  0  0  0  0  0  0  0  0  0
   -5.7700   26.0608    2.4238 C   0  0  0  0  0  0  0  0  0  0  0  0
   -2.6285   30.8130    7.0200 C   0  0  0  0  0  0  0  0  0  0  0  0
   -1.2782   30.2336    7.3827 C   0  0  0  0  0  0  0  0  0  0  0  0
   -0.8673   30.1601    8.7204 C   0  0  0  0  0  0  0  0  0  0  0  0
    0.3882   29.6443    9.0451 C   0  0  0  0  0  0  0  0  0  0  0  0
    1.2441   29.2016    8.0381 C   0  0  0  0  0  0  0  0  0  0  0  0
    0.8471   29.2772    6.7045 C   0  0  0  0  0  0  0  0  0  0  0  0
   -0.4073   29.7932    6.3767 C   0  0  0  0  0  0  0  0  0  0  0  0
  2  3  1  0  0  0
  3  4  1  0  0  0
  3  5  1  0  0  0
  5  6  2  0  0  0
  5  1  1  0  0  0
  1 19  1  0  0  0
 19 20  1  0  0  0
 20 21  2  0  0  0
 21 22  1  0  0  0
 22 23  2  0  0  0
 23 24  1  0  0  0
 24 25  2  0  0  0
  1  7  1  0  0  0
  7  9  1  0  0  0
  9 10  2  0  0  0
 10 11  1  0  0  0
 11 12  2  0  0  0
 12 14  1  0  0  0
 14 15  2  0  0  0
 15 16  1  0  0  0
 16 17  1  0  0  0
 17 18  2  0  0  0
 12 13  1  0  0  0
 25 20  1  0  0  0
 13  9  1  0  0  0
 18 14  1  0  0  0
  7  8  1  0  0  0
M  END
> <minimizedAffinity>
-8.27212

$$$$
OCNT-2310342


 34 37  0  0  0  0  0  0  0  0999 V2000
   -5.7268   29.1471    4.9542 C   0  0  0  0  0  0  0  0  0  0  0  0
   -6.2670   29.5653    3.9326 O   0  0  0  0  0  0  0  0  0  0  0  0
   -5.1034   27.9143    5.0621 N   0  0  0  0  0  0  0  0  0  0  0  0
   -4.7621   27.5829    5.9556 H   0  0  0  0  0  0  0  0  0  0  0  0
   -4.4916   31.2278    7.8642 C   0  0  0  0  0  0  0  0  0  0  0  0
   -5.6944   31.5240    8.5206 C   0  0  0  0  0  0  0  0  0  0  0  0
   -6.9095   31.0476    8.0270 C   0  0  0  0  0  0  0  0  0  0  0  0
   -6.9405   30.2736    6.8662 C   0  0  0  0  0  0  0  0  0  0  0  0
   -5.7501   29.9776    6.1911 C   0  0  0  0  0  0  0  0  0  0  0  0
   -4.5302   30.4418    6.7015 C   0  0  0  0  0  0  0  0  0  0  0  0
   -3.1699   31.7101    8.4195 C   0  0  0  0  0  0  0  0  0  0  0  0
   -2.5489   30.7145    9.2855 N   0  0  0  0  0  0  0  0  0  0  0  0
   -2.0848   31.1529   10.0818 H   0  0  0  0  0  0  0  0  0  0  0  0
   -1.6027   26.8156    6.7568 C   0  0  0  0  0  0  0  0  0  0  0  0
   -1.1077   28.0249    7.4850 C   0  0  0  0  0  0  0  0  0  0  0  0
    0.2218   28.2256    7.5217 N   0  0  0  0  0  0  0  0  0  0  0  0
    0.6304   29.3327    8.1619 C   0  0  0  0  0  0  0  0  0  0  0  0
   -0.2268   30.2144    8.7751 C   0  0  0  0  0  0  0  0  0  0  0  0
   -1.5686   29.9077    8.7126 C   0  0  0  0  0  0  0  0  0  0  0  0
   -2.0225   28.8321    8.0538 N   0  0  0  0  0  0  0  0  0  0  0  0
   -4.9914   27.0647    3.9794 C   0  0  0  0  0  0  0  0  0  0  0  0
   -5.9349   26.2658    3.3834 C   0  0  0  0  0  0  0  0  0  0  0  0
   -5.2654   25.5980    2.3157 C   0  0  0  0  0  0  0  0  0  0  0  0
   -3.9726   25.9722    2.2718 N   0  0  0  0  0  0  0  0  0  0  0  0
   -3.8412   26.8592    3.2713 N   0  0  0  0  0  0  0  0  0  0  0  0
   -2.9432   27.3059    3.4380 H   0  0  0  0  0  0  0  0  0  0  0  0
   -5.8016   24.6214    1.3605 C   0  0  0  0  0  0  0  0  0  0  0  0
   -6.5887   25.0562    0.2760 C   0  0  0  0  0  0  0  0  0  0  0  0
   -7.1069   24.1498   -0.6564 C   0  0  0  0  0  0  0  0  0  0  0  0
   -6.8501   22.7898   -0.5166 C   0  0  0  0  0  0  0  0  0  0  0  0
   -6.0794   22.3509    0.5532 C   0  0  0  0  0  0  0  0  0  0  0  0
   -5.8466   21.0376    0.6926 F   0  0  0  0  0  0  0  0  0  0  0  0
   -5.5599   23.2491    1.4836 C   0  0  0  0  0  0  0  0  0  0  0  0
   -4.8323   22.7588    2.5000 F   0  0  0  0  0  0  0  0  0  0  0  0
 14 15  1  0  0  0
 15 16  2  0  0  0
 16 17  1  0  0  0
 17 18  2  0  0  0
 18 19  1  0  0  0
 19 12  1  0  0  0
 12 11  1  0  0  0
 11  5  1  0  0  0
  5  6  2  0  0  0
  6  7  1  0  0  0
  7  8  2  0  0  0
  8  9  1  0  0  0
  9  1  1  0  0  0
  1  2  2  0  0  0
  1  3  1  0  0  0
  3 21  1  0  0  0
 21 22  2  0  0  0
 22 23  1  0  0  0
 23 27  1  0  0  0
 27 28  2  0  0  0
 28 29  1  0  0  0
 29 30  2  0  0  0
 30 31  1  0  0  0
 31 32  1  0  0  0
 31 33  2  0  0  0
 33 34  1  0  0  0
 23 24  2  0  0  0
 24 25  1  0  0  0
  9 10  2  0  0  0
 19 20  2  0  0  0
 20 15  1  0  0  0
 10  5  1  0  0  0
 25 21  1  0  0  0
 33 27  1  0  0  0
 12 13  1  0  0  0
  3  4  1  0  0  0
 25 26  1  0  0  0
M  END
> <minimizedAffinity>
-11.43010

$$$$
OCNT-2310344


 23 25  0  0  0  0  0  0  0  0999 V2000
   -4.9073   25.2299    2.9106 C   0  0  0  0  0  0  0  0  0  0  0  0
   -5.1197   26.5844    3.0372 C   0  0  0  0  0  0  0  0  0  0  0  0
   -3.9891   27.1373    3.5826 N   0  0  0  0  0  0  0  0  0  0  0  0
   -3.0499   26.1604    3.8382 C   0  0  0  0  0  0  0  0  0  0  0  0
   -3.6037   24.9666    3.3991 C   0  0  0  0  0  0  0  0  0  0  0  0
   -3.8485   28.1259    3.7397 H   0  0  0  0  0  0  0  0  0  0  0  0
   -7.7040   23.1611   -0.5610 C   0  0  0  0  0  0  0  0  0  0  0  0
   -7.0505   23.3416    0.7632 C   0  0  0  0  0  0  0  0  0  0  0  0
   -6.2486   24.3392    1.0662 N   0  0  0  0  0  0  0  0  0  0  0  0
   -5.8137   24.2133    2.3737 C   0  0  0  0  0  0  0  0  0  0  0  0
   -6.2948   23.1100    3.0477 C   0  0  0  0  0  0  0  0  0  0  0  0
   -7.3238   22.2015    2.0207 S   0  0  0  0  0  0  0  0  0  0  0  0
   -1.7350   26.3682    4.4077 C   0  0  0  0  0  0  0  0  0  0  0  0
   -0.6990   26.0225    3.8492 O   0  0  0  0  0  0  0  0  0  0  0  0
   -1.7378   26.9678    5.6501 N   0  0  0  0  0  0  0  0  0  0  0  0
   -2.5885   26.9323    6.1893 H   0  0  0  0  0  0  0  0  0  0  0  0
   -0.5125   27.1058    6.4054 C   0  0  0  0  0  0  0  0  0  0  0  0
   -0.6507   28.2817    7.3194 C   0  0  0  0  0  0  0  0  0  0  0  0
    0.3539   29.0313    7.9057 C   0  0  0  0  0  0  0  0  0  0  0  0
   -0.1581   30.0790    8.7275 C   0  0  0  0  0  0  0  0  0  0  0  0
   -1.5293   30.0795    8.7305 C   0  0  0  0  0  0  0  0  0  0  0  0
   -2.5819   31.3330    9.7167 Br  0  0  0  0  0  0  0  0  0  0  0  0
   -2.2034   28.8548    7.7746 S   0  0  0  0  0  0  0  0  0  0  0  0
  7  8  1  0  0  0
  8  9  2  0  0  0
  9 10  1  0  0  0
 10  1  1  0  0  0
  1  2  2  0  0  0
  2  3  1  0  0  0
  3  4  1  0  0  0
  4 13  1  0  0  0
 13 14  2  0  0  0
 13 15  1  0  0  0
 15 17  1  0  0  0
 17 18  1  0  0  0
 18 19  2  0  0  0
 19 20  1  0  0  0
 20 21  2  0  0  0
 21 22  1  0  0  0
 21 23  1  0  0  0
  4  5  2  0  0  0
 10 11  2  0  0  0
 11 12  1  0  0  0
 12  8  1  0  0  0
  5  1  1  0  0  0
 23 18  1  0  0  0
  3  6  1  0  0  0
 15 16  1  0  0  0
M  END
> <minimizedAffinity>
-8.49893

$$$$
OCNT-2310353


 29 32  0  0  0  0  0  0  0  0999 V2000
   -3.4703   26.5249    5.1677 N   0  0  0  0  0  0  0  0  0  0  0  0
   -2.7734   26.0662    4.0643 C   0  0  0  0  0  0  0  0  0  0  0  0
   -1.6141   26.3215    3.7635 O   0  0  0  0  0  0  0  0  0  0  0  0
   -4.3730   26.1048    5.3439 H   0  0  0  0  0  0  0  0  0  0  0  0
   -2.8238   31.4085    8.3811 C   0  0  0  0  0  0  0  0  0  0  0  0
   -2.0076   30.4720    8.8227 N   0  0  0  0  0  0  0  0  0  0  0  0
   -2.2285   29.3820    8.0165 C   0  0  0  0  0  0  0  0  0  0  0  0
   -1.6387   28.1129    8.0395 C   0  0  0  0  0  0  0  0  0  0  0  0
   -2.0480   27.1564    7.0948 C   0  0  0  0  0  0  0  0  0  0  0  0
   -3.0288   27.4481    6.1410 C   0  0  0  0  0  0  0  0  0  0  0  0
   -3.6222   28.7235    6.1090 C   0  0  0  0  0  0  0  0  0  0  0  0
   -3.1965   29.6572    7.0594 C   0  0  0  0  0  0  0  0  0  0  0  0
   -3.5564   30.9541    7.3107 N   0  0  0  0  0  0  0  0  0  0  0  0
   -4.2650   31.4973    6.8383 H   0  0  0  0  0  0  0  0  0  0  0  0
   -2.9818   32.8014    8.9057 C   0  0  0  0  0  0  0  0  0  0  0  0
   -4.9576   33.9481    8.0982 C   0  0  0  0  0  0  0  0  0  0  0  0
   -4.3943   33.1409    9.1896 N   0  0  0  0  0  0  0  0  0  0  0  0
   -5.1749   31.9078    9.3309 C   0  0  0  0  0  0  0  0  0  0  0  0
   -3.5347   25.1268    3.1930 C   0  0  0  0  0  0  0  0  0  0  0  0
   -3.5932   23.7559    3.4598 C   0  0  0  0  0  0  0  0  0  0  0  0
   -4.3208   22.9111    2.6139 C   0  0  0  0  0  0  0  0  0  0  0  0
   -5.0045   23.4053    1.4896 C   0  0  0  0  0  0  0  0  0  0  0  0
   -4.9546   24.7908    1.2593 C   0  0  0  0  0  0  0  0  0  0  0  0
   -4.2324   25.6445    2.0990 C   0  0  0  0  0  0  0  0  0  0  0  0
   -5.8010   22.4951    0.5879 C   0  0  0  0  0  0  0  0  0  0  0  0
   -6.6966   21.4290    1.2018 C   0  0  0  0  0  0  0  0  0  0  0  0
   -7.2862   22.5907    0.5035 C   0  0  0  0  0  0  0  0  0  0  0  0
   -7.9928   23.5361    1.2102 F   0  0  0  0  0  0  0  0  0  0  0  0
   -7.9245   22.4191   -0.7030 F   0  0  0  0  0  0  0  0  0  0  0  0
 16 17  1  0  0  0
 17 18  1  0  0  0
 17 15  1  0  0  0
 15  5  1  0  0  0
  5  6  2  0  0  0
  6  7  1  0  0  0
  7  8  2  0  0  0
  8  9  1  0  0  0
  9 10  2  0  0  0
 10  1  1  0  0  0
  1  2  1  0  0  0
  2  3  2  0  0  0
  2 19  1  0  0  0
 19 20  1  0  0  0
 20 21  2  0  0  0
 21 22  1  0  0  0
 22 25  1  0  0  0
 25 26  1  0  0  0
 26 27  1  0  0  0
 27 28  1  0  0  0
 27 29  1  0  0  0
 22 23  2  0  0  0
 23 24  1  0  0  0
 10 11  1  0  0  0
 11 12  2  0  0  0
 12 13  1  0  0  0
 13  5  1  0  0  0
 12  7  1  0  0  0
 24 19  2  0  0  0
 27 25  1  0  0  0
  1  4  1  0  0  0
 13 14  1  0  0  0
M  END
> <minimizedAffinity>
-9.08622

$$$$
OCNT-2310355


 23 25  0  0  0  0  0  0  0  0999 V2000
   -5.1414   22.3547    2.3479 C   0  0  0  0  0  0  0  0  0  0  0  0
   -5.8287   23.1488    1.2635 C   0  0  0  0  0  0  0  0  0  0  0  0
   -6.5993   22.4285    0.3275 C   0  0  0  0  0  0  0  0  0  0  0  0
   -7.3179   23.0834   -0.6653 C   0  0  0  0  0  0  0  0  0  0  0  0
   -7.2645   24.4591   -0.6990 C   0  0  0  0  0  0  0  0  0  0  0  0
   -6.5500   25.1966    0.1743 N   0  0  0  0  0  0  0  0  0  0  0  0
   -5.8320   24.5482    1.1467 C   0  0  0  0  0  0  0  0  0  0  0  0
   -5.0907   25.4102    2.0147 N   0  0  0  0  0  0  0  0  0  0  0  0
   -5.6181   26.4615    2.7352 C   0  0  0  0  0  0  0  0  0  0  0  0
   -4.6817   27.0781    3.4196 N   0  0  0  0  0  0  0  0  0  0  0  0
   -3.5668   26.3768    3.0820 C   0  0  0  0  0  0  0  0  0  0  0  0
   -3.7503   25.3752    2.2227 N   0  0  0  0  0  0  0  0  0  0  0  0
   -5.8552   21.1010    2.5827 N   0  0  0  0  0  0  0  0  0  0  0  0
   -5.2247   20.3118    2.4601 H   0  0  0  0  0  0  0  0  0  0  0  0
   -7.9205   23.2970    5.4035 C   0  0  0  0  0  0  0  0  0  0  0  0
   -6.6898   22.5382    5.9366 C   0  0  0  0  0  0  0  0  0  0  0  0
   -5.7910   22.0822    4.7931 C   0  0  0  0  0  0  0  0  0  0  0  0
   -6.5027   21.0476    3.8972 C   0  0  0  0  0  0  0  0  0  0  0  0
   -8.0245   21.2935    3.8339 C   0  0  0  0  0  0  0  0  0  0  0  0
   -8.3889   22.7622    4.0364 C   0  0  0  0  0  0  0  0  0  0  0  0
  -10.2276   23.6040    5.8452 F   0  0  0  0  0  0  0  0  0  0  0  0
   -9.0498   23.2765    6.4311 C   0  0  0  0  0  0  0  0  0  0  0  0
   -9.1939   22.0249    6.9329 F   0  0  0  0  0  0  0  0  0  0  0  0
 21 22  1  0  0  0
 22 23  1  0  0  0
 22 15  1  0  0  0
 15 16  1  0  0  0
 16 17  1  0  0  0
 17 18  1  0  0  0
 18 13  1  0  0  0
 13  1  1  0  0  0
  1  2  1  0  0  0
  2  3  1  0  0  0
  3  4  2  0  0  0
  4  5  1  0  0  0
  5  6  2  0  0  0
  6  7  1  0  0  0
  7  8  1  0  0  0
  8  9  1  0  0  0
  9 10  2  0  0  0
 10 11  1  0  0  0
 11 12  2  0  0  0
 18 19  1  0  0  0
 19 20  1  0  0  0
 20 15  1  0  0  0
  7  2  2  0  0  0
 12  8  1  0  0  0
 13 14  1  0  0  0
M  END
> <minimizedAffinity>
-8.17614

$$$$
OCNT-2310374


 24 27  0  0  0  0  0  0  0  0999 V2000
   -4.1141   27.2558    5.0675 N   0  0  0  0  0  0  0  0  0  0  0  0
   -5.5323   27.2239    4.7001 C   0  0  0  0  0  0  0  0  0  0  0  0
   -5.8929   25.9212    4.0005 C   0  0  0  0  0  0  0  0  0  0  0  0
   -5.0681   25.7131    2.7261 C   0  0  0  0  0  0  0  0  0  0  0  0
   -3.6457   26.2697    2.8701 C   0  0  0  0  0  0  0  0  0  0  0  0
   -3.2197   26.3529    4.3312 C   0  0  0  0  0  0  0  0  0  0  0  0
   -2.1271   31.9671   10.3992 C   0  0  0  0  0  0  0  0  0  0  0  0
   -2.0802   30.9046    9.3373 C   0  0  0  0  0  0  0  0  0  0  0  0
   -0.9311   30.2804    9.0325 C   0  0  0  0  0  0  0  0  0  0  0  0
   -0.9213   29.2379    7.9801 C   0  0  0  0  0  0  0  0  0  0  0  0
    0.1319   28.6720    7.7019 O   0  0  0  0  0  0  0  0  0  0  0  0
   -2.1562   29.0197    7.4122 N   0  0  0  0  0  0  0  0  0  0  0  0
   -2.3458   28.0917    6.4203 N   0  0  0  0  0  0  0  0  0  0  0  0
   -3.5930   28.0743    6.0523 C   0  0  0  0  0  0  0  0  0  0  0  0
   -4.6350   29.2165    6.9032 S   0  0  0  0  0  0  0  0  0  0  0  0
   -3.2551   29.7245    7.8107 C   0  0  0  0  0  0  0  0  0  0  0  0
   -3.2843   30.6370    8.7236 N   0  0  0  0  0  0  0  0  0  0  0  0
   -4.9478   24.3068    2.4538 O   0  0  0  0  0  0  0  0  0  0  0  0
   -5.7214   23.8404    1.4125 C   0  0  0  0  0  0  0  0  0  0  0  0
   -6.2461   24.7813    0.5361 C   0  0  0  0  0  0  0  0  0  0  0  0
   -7.0151   24.4435   -0.5288 N   0  0  0  0  0  0  0  0  0  0  0  0
   -7.2338   23.1181   -0.6765 C   0  0  0  0  0  0  0  0  0  0  0  0
   -6.7086   22.1781    0.1964 C   0  0  0  0  0  0  0  0  0  0  0  0
   -5.9400   22.5153    1.2590 N   0  0  0  0  0  0  0  0  0  0  0  0
  7  8  1  0  0  0
  8  9  2  0  0  0
  9 10  1  0  0  0
 10 11  2  0  0  0
 10 12  1  0  0  0
 12 13  1  0  0  0
 13 14  2  0  0  0
 14  1  1  0  0  0
  1  2  1  0  0  0
  2  3  1  0  0  0
  3  4  1  0  0  0
  4 18  1  0  0  0
 18 19  1  0  0  0
 19 20  2  0  0  0
 20 21  1  0  0  0
 21 22  2  0  0  0
 22 23  1  0  0  0
 23 24  2  0  0  0
  4  5  1  0  0  0
  5  6  1  0  0  0
 14 15  1  0  0  0
 15 16  1  0  0  0
 16 17  2  0  0  0
 17  8  1  0  0  0
 16 12  1  0  0  0
  6  1  1  0  0  0
 24 19  1  0  0  0
M  END
> <minimizedAffinity>
-8.95307

$$$$
OCNT-2310378


 29 32  0  0  0  0  0  0  0  0999 V2000
   -5.3785   30.0051    7.5237 O   0  0  0  0  0  0  0  0  0  0  0  0
   -4.6124   30.2912    6.6150 C   0  0  0  0  0  0  0  0  0  0  0  0
   -3.3285   30.7342    6.7926 N   0  0  0  0  0  0  0  0  0  0  0  0
   -4.9303   30.2150    5.2845 N   0  0  0  0  0  0  0  0  0  0  0  0
   -2.9500   31.2984    6.0452 H   0  0  0  0  0  0  0  0  0  0  0  0
   -4.1465   29.9940    4.6885 H   0  0  0  0  0  0  0  0  0  0  0  0
   -2.7934   30.9572    8.1273 C   0  0  0  0  0  0  0  0  0  0  0  0
   -2.0234   29.7483    8.6636 C   0  0  0  0  0  0  0  0  0  0  0  0
   -1.6706   28.8038    7.5578 C   0  0  0  0  0  0  0  0  0  0  0  0
   -2.5013   27.9111    7.0521 N   0  0  0  0  0  0  0  0  0  0  0  0
   -1.8662   27.2098    6.0506 C   0  0  0  0  0  0  0  0  0  0  0  0
   -0.5605   27.5814    5.8062 C   0  0  0  0  0  0  0  0  0  0  0  0
    0.3240   26.9870    4.7637 C   0  0  0  0  0  0  0  0  0  0  0  0
   -0.2624   25.6491    4.2756 C   0  0  0  0  0  0  0  0  0  0  0  0
   -1.7808   25.7362    4.0328 C   0  0  0  0  0  0  0  0  0  0  0  0
   -2.5493   26.1066    5.3147 C   0  0  0  0  0  0  0  0  0  0  0  0
   -0.1004   28.8472    6.8435 S   0  0  0  0  0  0  0  0  0  0  0  0
   -6.2071   29.6583    4.9007 C   0  0  0  0  0  0  0  0  0  0  0  0
   -6.0542   28.2370    4.4500 C   0  0  0  0  0  0  0  0  0  0  0  0
   -5.7720   27.9107    3.1217 C   0  0  0  0  0  0  0  0  0  0  0  0
   -5.6676   26.5717    2.7396 C   0  0  0  0  0  0  0  0  0  0  0  0
   -5.8560   25.5849    3.7044 C   0  0  0  0  0  0  0  0  0  0  0  0
   -6.1392   25.8801    4.9997 N   0  0  0  0  0  0  0  0  0  0  0  0
   -6.2356   27.1858    5.3399 C   0  0  0  0  0  0  0  0  0  0  0  0
   -5.7645   24.2088    3.3576 N   0  0  0  0  0  0  0  0  0  0  0  0
   -5.5235   23.1210    4.1703 C   0  0  0  0  0  0  0  0  0  0  0  0
   -5.5301   22.0240    3.3395 C   0  0  0  0  0  0  0  0  0  0  0  0
   -5.7676   22.3931    2.0450 N   0  0  0  0  0  0  0  0  0  0  0  0
   -5.9060   23.7013    2.0845 C   0  0  0  0  0  0  0  0  0  0  0  0
  1  2  2  0  0  0
  2  3  1  0  0  0
  3  7  1  0  0  0
  7  8  1  0  0  0
  8  9  1  0  0  0
  9 10  2  0  0  0
 10 11  1  0  0  0
 11 12  2  0  0  0
 12 13  1  0  0  0
 13 14  1  0  0  0
 14 15  1  0  0  0
 15 16  1  0  0  0
 12 17  1  0  0  0
  2  4  1  0  0  0
  4 18  1  0  0  0
 18 19  1  0  0  0
 19 20  2  0  0  0
 20 21  1  0  0  0
 21 22  2  0  0  0
 22 25  1  0  0  0
 25 26  1  0  0  0
 26 27  2  0  0  0
 27 28  1  0  0  0
 28 29  2  0  0  0
 22 23  1  0  0  0
 23 24  2  0  0  0
 17  9  1  0  0  0
 24 19  1  0  0  0
 16 11  1  0  0  0
 29 25  1  0  0  0
  3  5  1  0  0  0
  4  6  1  0  0  0
M  END
> <minimizedAffinity>
-8.89892

$$$$
OCNT-2310397


 24 25  0  0  0  0  0  0  0  0999 V2000
   -4.5581   31.0313    6.4361 N   0  0  0  0  0  0  0  0  0  0  0  0
   -5.6097   30.1424    6.5103 C   0  0  0  0  0  0  0  0  0  0  0  0
   -6.4232   30.1161    7.4252 O   0  0  0  0  0  0  0  0  0  0  0  0
   -4.0526   31.1321    5.5675 H   0  0  0  0  0  0  0  0  0  0  0  0
   -5.7571   29.1933    5.3733 C   0  0  0  0  0  0  0  0  0  0  0  0
   -5.8650   29.6337    4.0466 C   0  0  0  0  0  0  0  0  0  0  0  0
   -5.9910   28.7030    3.0126 C   0  0  0  0  0  0  0  0  0  0  0  0
   -6.0010   27.3404    3.3039 C   0  0  0  0  0  0  0  0  0  0  0  0
   -6.1245   26.4702    2.2918 F   0  0  0  0  0  0  0  0  0  0  0  0
   -5.8792   26.8877    4.6158 C   0  0  0  0  0  0  0  0  0  0  0  0
   -5.7522   27.8177    5.6536 C   0  0  0  0  0  0  0  0  0  0  0  0
   -5.8859   25.4857    4.8967 C   0  0  0  0  0  0  0  0  0  0  0  0
   -5.8853   24.3525    5.1473 N   0  0  0  0  0  0  0  0  0  0  0  0
   -4.3618   32.0584    7.4457 C   0  0  0  0  0  0  0  0  0  0  0  0
   -2.9541   32.0110    8.0325 C   0  0  0  0  0  0  0  0  0  0  0  0
   -2.0595   30.9262    7.4177 C   0  0  0  0  0  0  0  0  0  0  0  0
    0.7586   29.4956    6.3573 C   0  0  0  0  0  0  0  0  0  0  0  0
    0.2969   28.6750    7.5584 C   0  0  0  0  0  0  0  0  0  0  0  0
   -0.4771   29.4811    8.6294 C   0  0  0  0  0  0  0  0  0  0  0  0
   -1.8882   29.7901    8.3241 N   0  0  0  0  0  0  0  0  0  0  0  0
   -2.5464   28.5529    7.8578 C   0  0  0  0  0  0  0  0  0  0  0  0
   -1.7823   27.8184    6.7345 C   0  0  0  0  0  0  0  0  0  0  0  0
   -2.4634   26.4974    6.3959 C   0  0  0  0  0  0  0  0  0  0  0  0
   -0.4369   27.5158    7.1316 O   0  0  0  0  0  0  0  0  0  0  0  0
 17 18  1  0  0  0
 18 19  1  0  0  0
 19 20  1  0  0  0
 20 16  1  0  0  0
 16 15  1  0  0  0
 15 14  1  0  0  0
 14  1  1  0  0  0
  1  2  1  0  0  0
  2  3  2  0  0  0
  2  5  1  0  0  0
  5  6  1  0  0  0
  6  7  2  0  0  0
  7  8  1  0  0  0
  8  9  1  0  0  0
  8 10  2  0  0  0
 10 12  1  0  0  0
 12 13  3  0  0  0
 10 11  1  0  0  0
 20 21  1  0  0  0
 21 22  1  0  0  0
 22 23  1  0  0  0
 22 24  1  0  0  0
 24 18  1  0  0  0
 11  5  2  0  0  0
  1  4  1  0  0  0
M  END
> <minimizedAffinity>
-8.19861

$$$$
OCNT-2310398


 23 25  0  0  0  0  0  0  0  0999 V2000
   -6.7587   21.3709    3.8105 N   0  0  0  0  0  0  0  0  0  0  0  0
   -6.6668   22.3701    4.9183 C   0  0  0  0  0  0  0  0  0  0  0  0
   -7.7079   23.4725    4.7780 C   0  0  0  0  0  0  0  0  0  0  0  0
   -9.1411   22.9150    4.7756 C   0  0  0  0  0  0  0  0  0  0  0  0
   -9.1911   21.4760    4.2388 C   0  0  0  0  0  0  0  0  0  0  0  0
   -8.1077   21.2587    3.1914 C   0  0  0  0  0  0  0  0  0  0  0  0
   -9.8094   23.0328    6.1144 C   0  0  0  0  0  0  0  0  0  0  0  0
  -10.1651   24.1691    6.8149 C   0  0  0  0  0  0  0  0  0  0  0  0
  -10.7432   23.7435    7.9754 N   0  0  0  0  0  0  0  0  0  0  0  0
  -11.2770   24.5644    9.0345 C   0  0  0  0  0  0  0  0  0  0  0  0
  -10.7912   22.4056    8.0869 N   0  0  0  0  0  0  0  0  0  0  0  0
  -10.2266   21.9747    6.9576 C   0  0  0  0  0  0  0  0  0  0  0  0
   -5.4411   21.4176    2.7143 S   0  0  0  0  0  0  0  0  0  0  0  0
   -4.2748   20.9353    3.4174 O   0  0  0  0  0  0  0  0  0  0  0  0
   -5.8711   20.7571    1.4968 O   0  0  0  0  0  0  0  0  0  0  0  0
   -3.0808   25.9643    3.6614 C   0  0  0  0  0  0  0  0  0  0  0  0
   -4.1447   25.2354    2.8949 C   0  0  0  0  0  0  0  0  0  0  0  0
   -4.9336   25.9048    1.9603 C   0  0  0  0  0  0  0  0  0  0  0  0
   -5.9031   25.2112    1.2322 C   0  0  0  0  0  0  0  0  0  0  0  0
   -6.0999   23.8332    1.4139 C   0  0  0  0  0  0  0  0  0  0  0  0
   -7.4296   23.0625    0.3023 Br  0  0  0  0  0  0  0  0  0  0  0  0
   -5.3030   23.1508    2.3356 C   0  0  0  0  0  0  0  0  0  0  0  0
   -4.3280   23.8587    3.0689 C   0  0  0  0  0  0  0  0  0  0  0  0
 16 17  1  0  0  0
 17 18  1  0  0  0
 18 19  2  0  0  0
 19 20  1  0  0  0
 20 21  1  0  0  0
 20 22  2  0  0  0
 22 13  1  0  0  0
 13 14  2  0  0  0
 13 15  2  0  0  0
 13  1  1  0  0  0
  1  2  1  0  0  0
  2  3  1  0  0  0
  3  4  1  0  0  0
  4  7  1  0  0  0
  7  8  2  0  0  0
  8  9  1  0  0  0
  9 10  1  0  0  0
  9 11  1  0  0  0
 11 12  2  0  0  0
  4  5  1  0  0  0
  5  6  1  0  0  0
 22 23  1  0  0  0
 23 17  2  0  0  0
  6  1  1  0  0  0
 12  7  1  0  0  0
M  END
> <minimizedAffinity>
-8.67527

$$$$
OCNT-2310401


 27 30  0  0  0  0  0  0  0  0999 V2000
   -4.8449   27.0228    4.4854 N   0  0  0  0  0  0  0  0  0  0  0  0
   -4.1458   26.6623    3.2333 C   0  0  0  0  0  0  0  0  0  0  0  0
   -3.5327   25.2438    3.2606 C   0  0  0  0  0  0  0  0  0  0  0  0
   -4.5030   24.1678    3.5304 N   0  0  0  0  0  0  0  0  0  0  0  0
   -5.7735   24.6819    4.0628 C   0  0  0  0  0  0  0  0  0  0  0  0
   -5.5645   25.8538    5.0482 C   0  0  0  0  0  0  0  0  0  0  0  0
   -4.7053   23.1924    2.4590 C   0  0  0  0  0  0  0  0  0  0  0  0
   -5.2700   21.8105    2.8701 C   0  0  0  0  0  0  0  0  0  0  0  0
   -5.9336   21.2309    1.6112 C   0  0  0  0  0  0  0  0  0  0  0  0
   -6.3921   22.4773    0.9184 C   0  0  0  0  0  0  0  0  0  0  0  0
   -7.3260   22.5888   -0.1000 C   0  0  0  0  0  0  0  0  0  0  0  0
   -7.5675   23.8547   -0.6375 C   0  0  0  0  0  0  0  0  0  0  0  0
   -6.8661   24.9685   -0.1616 C   0  0  0  0  0  0  0  0  0  0  0  0
   -7.1094   26.1709   -0.7004 F   0  0  0  0  0  0  0  0  0  0  0  0
   -5.9185   24.8546    0.8510 C   0  0  0  0  0  0  0  0  0  0  0  0
   -5.6964   23.5990    1.3955 C   0  0  0  0  0  0  0  0  0  0  0  0
   -5.7505   28.1718    4.2435 C   0  0  0  0  0  0  0  0  0  0  0  0
   -4.3435   29.4630    5.7382 N   0  0  0  0  0  0  0  0  0  0  0  0
   -5.6421   29.2236    5.3567 C   0  0  0  0  0  0  0  0  0  0  0  0
   -6.6394   29.7960    5.7899 O   0  0  0  0  0  0  0  0  0  0  0  0
   -3.6212   28.8840    5.3220 H   0  0  0  0  0  0  0  0  0  0  0  0
   -2.7671   31.8610    9.8315 C   0  0  0  0  0  0  0  0  0  0  0  0
   -3.2340   31.3602    8.5281 C   0  0  0  0  0  0  0  0  0  0  0  0
   -3.5566   30.1209    8.0349 C   0  0  0  0  0  0  0  0  0  0  0  0
   -3.9303   30.3573    6.6939 C   0  0  0  0  0  0  0  0  0  0  0  0
   -3.8411   31.6588    6.3965 N   0  0  0  0  0  0  0  0  0  0  0  0
   -3.4025   32.2857    7.5479 O   0  0  0  0  0  0  0  0  0  0  0  0
 22 23  1  0  0  0
 23 24  2  0  0  0
 24 25  1  0  0  0
 25 18  1  0  0  0
 18 19  1  0  0  0
 19 20  2  0  0  0
 19 17  1  0  0  0
 17  1  1  0  0  0
  1  2  1  0  0  0
  2  3  1  0  0  0
  3  4  1  0  0  0
  4  7  1  0  0  0
  7  8  1  0  0  0
  8  9  1  0  0  0
  9 10  1  0  0  0
 10 11  1  0  0  0
 11 12  2  0  0  0
 12 13  1  0  0  0
 13 14  1  0  0  0
 13 15  2  0  0  0
 15 16  1  0  0  0
  4  5  1  0  0  0
  5  6  1  0  0  0
 25 26  2  0  0  0
 26 27  1  0  0  0
 27 23  1  0  0  0
  6  1  1  0  0  0
 16  7  1  0  0  0
 16 10  2  0  0  0
 18 21  1  0  0  0
M  END
> <minimizedAffinity>
-10.41601

$$$$
OCNT-2310404


 29 31  0  0  0  0  0  0  0  0999 V2000
   -6.0138   31.1038    7.5469 C   0  0  0  0  0  0  0  0  0  0  0  0
   -7.1569   31.1765    7.9902 O   0  0  0  0  0  0  0  0  0  0  0  0
   -5.6947   30.4217    6.3871 N   0  0  0  0  0  0  0  0  0  0  0  0
   -4.7087   30.3146    6.1725 H   0  0  0  0  0  0  0  0  0  0  0  0
   -6.7046   29.6480    5.6354 C   0  0  0  0  0  0  0  0  0  0  0  0
   -6.7246   28.1429    5.9790 C   0  0  0  0  0  0  0  0  0  0  0  0
   -5.7226   27.9107    4.8117 C   0  0  0  0  0  0  0  0  0  0  0  0
   -6.2642   29.2406    4.2123 C   0  0  0  0  0  0  0  0  0  0  0  0
   -5.8357   26.5791    3.9570 C   0  0  0  0  0  0  0  0  0  0  0  0
   -6.1008   25.3298    4.5548 C   0  0  0  0  0  0  0  0  0  0  0  0
   -6.1913   24.1507    3.8057 C   0  0  0  0  0  0  0  0  0  0  0  0
   -6.0077   24.1931    2.4288 C   0  0  0  0  0  0  0  0  0  0  0  0
   -6.1115   22.7478    1.5042 Cl  0  0  0  0  0  0  0  0  0  0  0  0
   -5.7366   25.4024    1.7997 C   0  0  0  0  0  0  0  0  0  0  0  0
   -5.6495   26.5754    2.5591 C   0  0  0  0  0  0  0  0  0  0  0  0
   -4.8417   31.8105    8.2089 C   0  0  0  0  0  0  0  0  0  0  0  0
   -1.0533   29.8933    7.4825 C   0  0  0  0  0  0  0  0  0  0  0  0
   -1.4786   30.9244    6.6405 C   0  0  0  0  0  0  0  0  0  0  0  0
   -2.7043   31.5474    6.8785 C   0  0  0  0  0  0  0  0  0  0  0  0
   -3.5078   31.1435    7.9559 C   0  0  0  0  0  0  0  0  0  0  0  0
   -3.0562   30.1184    8.8033 C   0  0  0  0  0  0  0  0  0  0  0  0
   -1.8328   29.4899    8.5674 C   0  0  0  0  0  0  0  0  0  0  0  0
    0.5011   29.1047    7.1593 S   0  0  0  0  0  0  0  0  0  0  0  0
    1.3354   29.2238    8.3357 O   0  0  0  0  0  0  0  0  0  0  0  0
    0.9435   29.5229    5.8490 O   0  0  0  0  0  0  0  0  0  0  0  0
    0.0357   27.4679    7.1099 N   0  0  0  0  0  0  0  0  0  0  0  0
    0.9024   26.9251    7.1372 H   0  0  0  0  0  0  0  0  0  0  0  0
   -2.0687   26.4191    6.3934 C   0  0  0  0  0  0  0  0  0  0  0  0
   -0.7790   27.0730    5.9362 C   0  0  0  0  0  0  0  0  0  0  0  0
 28 29  1  0  0  0
 29 26  1  0  0  0
 26 23  1  0  0  0
 23 24  2  0  0  0
 23 25  2  0  0  0
 23 17  1  0  0  0
 17 18  1  0  0  0
 18 19  2  0  0  0
 19 20  1  0  0  0
 20 16  1  0  0  0
 16  1  1  0  0  0
  1  2  2  0  0  0
  1  3  1  0  0  0
  3  5  1  0  0  0
  5  6  1  0  0  0
  6  7  1  0  0  0
  7  9  1  0  0  0
  9 10  1  0  0  0
 10 11  2  0  0  0
 11 12  1  0  0  0
 12 13  1  0  0  0
 12 14  2  0  0  0
 14 15  1  0  0  0
  7  8  1  0  0  0
 20 21  2  0  0  0
 21 22  1  0  0  0
 22 17  2  0  0  0
  8  5  1  0  0  0
 15  9  2  0  0  0
 26 27  1  0  0  0
  3  4  1  0  0  0
M  END
> <minimizedAffinity>
-10.10795

$$$$
OCNT-2310417


 29 32  0  0  0  0  0  0  0  0999 V2000
   -3.3301   25.9064    4.8819 C   0  0  0  0  0  0  0  0  0  0  0  0
   -2.5815   26.3621    4.0260 O   0  0  0  0  0  0  0  0  0  0  0  0
   -3.1903   26.1652    6.2280 N   0  0  0  0  0  0  0  0  0  0  0  0
   -3.8650   25.8141    6.8917 H   0  0  0  0  0  0  0  0  0  0  0  0
   -7.0138   22.6722    5.9917 C   0  0  0  0  0  0  0  0  0  0  0  0
   -6.2410   23.4801    4.9871 C   0  0  0  0  0  0  0  0  0  0  0  0
   -5.1897   24.2855    5.4260 C   0  0  0  0  0  0  0  0  0  0  0  0
   -4.4638   25.0381    4.4928 C   0  0  0  0  0  0  0  0  0  0  0  0
   -4.8197   24.9180    3.1414 C   0  0  0  0  0  0  0  0  0  0  0  0
   -4.4001   25.4254    1.8924 C   0  0  0  0  0  0  0  0  0  0  0  0
   -5.1356   24.9723    0.8714 N   0  0  0  0  0  0  0  0  0  0  0  0
   -6.0330   24.1514    1.4699 N   0  0  0  0  0  0  0  0  0  0  0  0
   -5.8868   24.0884    2.8330 C   0  0  0  0  0  0  0  0  0  0  0  0
   -6.6268   23.3638    3.6963 N   0  0  0  0  0  0  0  0  0  0  0  0
   -7.0191   23.4321    0.6725 C   0  0  0  0  0  0  0  0  0  0  0  0
   -7.5821   24.3068   -0.4471 C   0  0  0  0  0  0  0  0  0  0  0  0
   -6.4433   22.1270    0.1242 C   0  0  0  0  0  0  0  0  0  0  0  0
   -2.0768   26.9329    6.7421 C   0  0  0  0  0  0  0  0  0  0  0  0
   -2.5228   28.3022    7.1639 C   0  0  0  0  0  0  0  0  0  0  0  0
   -1.9464   28.9480    8.2599 C   0  0  0  0  0  0  0  0  0  0  0  0
   -2.3952   30.2114    8.6457 C   0  0  0  0  0  0  0  0  0  0  0  0
   -3.4253   30.8020    7.9197 C   0  0  0  0  0  0  0  0  0  0  0  0
   -4.0046   30.1904    6.8523 N   0  0  0  0  0  0  0  0  0  0  0  0
   -3.5439   28.9684    6.5018 C   0  0  0  0  0  0  0  0  0  0  0  0
   -3.9204   32.0868    8.2790 N   0  0  0  0  0  0  0  0  0  0  0  0
   -4.6814   32.9088    7.4736 C   0  0  0  0  0  0  0  0  0  0  0  0
   -4.9388   34.0355    8.2154 C   0  0  0  0  0  0  0  0  0  0  0  0
   -4.3648   33.9414    9.4527 N   0  0  0  0  0  0  0  0  0  0  0  0
   -3.7622   32.7712    9.4624 C   0  0  0  0  0  0  0  0  0  0  0  0
  5  6  1  0  0  0
  6  7  1  0  0  0
  7  8  2  0  0  0
  8  1  1  0  0  0
  1  2  2  0  0  0
  1  3  1  0  0  0
  3 18  1  0  0  0
 18 19  1  0  0  0
 19 20  2  0  0  0
 20 21  1  0  0  0
 21 22  2  0  0  0
 22 25  1  0  0  0
 25 26  1  0  0  0
 26 27  2  0  0  0
 27 28  1  0  0  0
 28 29  2  0  0  0
 22 23  1  0  0  0
 23 24  2  0  0  0
  8  9  1  0  0  0
  9 10  1  0  0  0
 10 11  2  0  0  0
 11 12  1  0  0  0
 12 15  1  0  0  0
 15 16  1  0  0  0
 15 17  1  0  0  0
 12 13  1  0  0  0
 13 14  1  0  0  0
 14  6  2  0  0  0
 24 19  1  0  0  0
 13  9  2  0  0  0
 29 25  1  0  0  0
  3  4  1  0  0  0
M  END
> <minimizedAffinity>
-9.34290

$$$$
OCNT-2310418


 32 35  0  0  0  0  0  0  0  0999 V2000
   -1.6107   29.0252    7.8969 O   0  0  0  0  0  0  0  0  0  0  0  0
   -2.3522   29.2012    6.9375 C   0  0  0  0  0  0  0  0  0  0  0  0
   -2.7923   30.4410    6.5177 N   0  0  0  0  0  0  0  0  0  0  0  0
   -3.5116   30.4893    5.8101 H   0  0  0  0  0  0  0  0  0  0  0  0
   -2.8597   28.0382    6.1641 C   0  0  0  0  0  0  0  0  0  0  0  0
   -1.9575   27.0408    5.7862 C   0  0  0  0  0  0  0  0  0  0  0  0
   -2.3971   25.9283    5.0583 C   0  0  0  0  0  0  0  0  0  0  0  0
   -3.7382   25.8079    4.6890 C   0  0  0  0  0  0  0  0  0  0  0  0
   -4.6366   26.8180    5.0619 C   0  0  0  0  0  0  0  0  0  0  0  0
   -4.2030   27.9301    5.7926 C   0  0  0  0  0  0  0  0  0  0  0  0
   -4.2614   24.7202    3.9593 N   0  0  0  0  0  0  0  0  0  0  0  0
   -4.6903   24.7208    2.6437 C   0  0  0  0  0  0  0  0  0  0  0  0
   -4.7525   25.6835    1.8897 O   0  0  0  0  0  0  0  0  0  0  0  0
   -4.4026   23.8665    4.4828 H   0  0  0  0  0  0  0  0  0  0  0  0
   -5.1575   23.3982    2.1402 C   0  0  0  0  0  0  0  0  0  0  0  0
   -5.0749   22.2912    2.9935 C   0  0  0  0  0  0  0  0  0  0  0  0
   -5.5005   21.0366    2.5553 C   0  0  0  0  0  0  0  0  0  0  0  0
   -6.0196   20.8865    1.2694 C   0  0  0  0  0  0  0  0  0  0  0  0
   -6.1230   21.9903    0.4222 C   0  0  0  0  0  0  0  0  0  0  0  0
   -5.6971   23.2479    0.8555 C   0  0  0  0  0  0  0  0  0  0  0  0
   -2.5075   31.6460    7.2800 C   0  0  0  0  0  0  0  0  0  0  0  0
   -3.7445   32.1930    8.0495 C   0  0  0  0  0  0  0  0  0  0  0  0
   -4.3440   33.4006    7.2840 C   0  0  0  0  0  0  0  0  0  0  0  0
   -5.0325   34.2707    8.3376 C   0  0  0  0  0  0  0  0  0  0  0  0
   -4.4211   33.8741    9.6785 C   0  0  0  0  0  0  0  0  0  0  0  0
   -3.2864   32.9104    9.3432 C   0  0  0  0  0  0  0  0  0  0  0  0
   -4.7363   31.0673    8.3925 C   0  0  0  0  0  0  0  0  0  0  0  0
   -5.8524   30.7538    7.6068 C   0  0  0  0  0  0  0  0  0  0  0  0
   -6.6897   29.7124    7.9908 C   0  0  0  0  0  0  0  0  0  0  0  0
   -6.5011   28.9565    9.0892 N   0  0  0  0  0  0  0  0  0  0  0  0
   -5.4191   29.2532    9.8349 C   0  0  0  0  0  0  0  0  0  0  0  0
   -4.5335   30.2800    9.5379 C   0  0  0  0  0  0  0  0  0  0  0  0
  1  2  2  0  0  0
  2  3  1  0  0  0
  3 21  1  0  0  0
 21 22  1  0  0  0
 22 27  1  0  0  0
 27 28  2  0  0  0
 28 29  1  0  0  0
 29 30  2  0  0  0
 30 31  1  0  0  0
 31 32  2  0  0  0
 22 23  1  0  0  0
 23 24  1  0  0  0
 24 25  1  0  0  0
 25 26  1  0  0  0
  2  5  1  0  0  0
  5  6  1  0  0  0
  6  7  2  0  0  0
  7  8  1  0  0  0
  8 11  1  0  0  0
 11 12  1  0  0  0
 12 13  2  0  0  0
 12 15  1  0  0  0
 15 16  2  0  0  0
 16 17  1  0  0  0
 17 18  2  0  0  0
 18 19  1  0  0  0
 19 20  2  0  0  0
  8  9  2  0  0  0
  9 10  1  0  0  0
 26 22  1  0  0  0
 10  5  2  0  0  0
 32 27  1  0  0  0
 20 15  1  0  0  0
  3  4  1  0  0  0
 11 14  1  0  0  0
M  END
> <minimizedAffinity>
-10.08169

$$$$
OCNT-2310433


 25 28  0  0  0  0  0  0  0  0999 V2000
   -3.0765   26.2095    3.9407 C   0  0  0  0  0  0  0  0  0  0  0  0
   -4.1140   25.2423    3.3728 C   0  0  0  0  0  0  0  0  0  0  0  0
   -4.4468   25.5271    1.8989 C   0  0  0  0  0  0  0  0  0  0  0  0
   -5.7168   24.9953    1.4861 O   0  0  0  0  0  0  0  0  0  0  0  0
   -5.7672   23.6311    1.5931 C   0  0  0  0  0  0  0  0  0  0  0  0
   -5.8196   22.9178    0.3932 C   0  0  0  0  0  0  0  0  0  0  0  0
   -5.9028   21.5276    0.4097 C   0  0  0  0  0  0  0  0  0  0  0  0
   -5.9535   20.8521    1.6259 C   0  0  0  0  0  0  0  0  0  0  0  0
   -5.9274   21.5680    2.8252 C   0  0  0  0  0  0  0  0  0  0  0  0
   -5.8330   22.9719    2.8308 C   0  0  0  0  0  0  0  0  0  0  0  0
   -5.8698   23.6801    4.1730 C   0  0  0  0  0  0  0  0  0  0  0  0
   -5.3326   25.0421    4.1857 N   0  0  0  0  0  0  0  0  0  0  0  0
   -6.0883   25.9892    4.8675 C   0  0  0  0  0  0  0  0  0  0  0  0
   -6.9596   25.7064    5.6878 O   0  0  0  0  0  0  0  0  0  0  0  0
   -5.8786   27.4217    4.6245 C   0  0  0  0  0  0  0  0  0  0  0  0
   -6.1719   27.9613    3.3775 C   0  0  0  0  0  0  0  0  0  0  0  0
   -6.0004   29.3199    3.2229 C   0  0  0  0  0  0  0  0  0  0  0  0
   -5.5799   30.1370    4.2139 N   0  0  0  0  0  0  0  0  0  0  0  0
   -5.3480   29.5934    5.4397 C   0  0  0  0  0  0  0  0  0  0  0  0
   -5.4949   28.2373    5.6897 C   0  0  0  0  0  0  0  0  0  0  0  0
   -4.9380   30.4764    6.4756 N   0  0  0  0  0  0  0  0  0  0  0  0
   -5.5273   30.7137    7.6983 C   0  0  0  0  0  0  0  0  0  0  0  0
   -4.7298   31.6441    8.3241 C   0  0  0  0  0  0  0  0  0  0  0  0
   -3.6700   31.9888    7.5341 N   0  0  0  0  0  0  0  0  0  0  0  0
   -3.8212   31.2816    6.4350 C   0  0  0  0  0  0  0  0  0  0  0  0
  1  2  1  0  0  0
  2  3  1  0  0  0
  3  4  1  0  0  0
  4  5  1  0  0  0
  5  6  2  0  0  0
  6  7  1  0  0  0
  7  8  2  0  0  0
  8  9  1  0  0  0
  9 10  2  0  0  0
 10 11  1  0  0  0
 11 12  1  0  0  0
 12 13  1  0  0  0
 13 14  2  0  0  0
 13 15  1  0  0  0
 15 16  2  0  0  0
 16 17  1  0  0  0
 17 18  2  0  0  0
 18 19  1  0  0  0
 19 21  1  0  0  0
 21 22  1  0  0  0
 22 23  2  0  0  0
 23 24  1  0  0  0
 24 25  2  0  0  0
 19 20  2  0  0  0
 12  2  1  0  0  0
 20 15  1  0  0  0
 10  5  1  0  0  0
 25 21  1  0  0  0
M  END
> <minimizedAffinity>
-8.84563

$$$$
OCNT-2310436


 22 23  0  0  0  0  0  0  0  0999 V2000
   -3.6131   33.0247    8.3612 N   0  0  0  0  0  0  0  0  0  0  0  0
   -3.3052   33.9920    8.4388 H   0  0  0  0  0  0  0  0  0  0  0  0
   -2.5365   32.1474    8.2070 C   0  0  0  0  0  0  0  0  0  0  0  0
   -2.3159   31.5799    6.9439 C   0  0  0  0  0  0  0  0  0  0  0  0
   -1.2990   30.6428    6.7297 C   0  0  0  0  0  0  0  0  0  0  0  0
   -0.4908   30.2184    7.7900 C   0  0  0  0  0  0  0  0  0  0  0  0
   -0.7240   30.7557    9.0618 C   0  0  0  0  0  0  0  0  0  0  0  0
   -1.7450   31.6931    9.2670 C   0  0  0  0  0  0  0  0  0  0  0  0
    0.6210   29.2250    7.5645 C   0  0  0  0  0  0  0  0  0  0  0  0
    1.6179   29.3183    8.4889 F   0  0  0  0  0  0  0  0  0  0  0  0
    1.2203   29.3860    6.3524 F   0  0  0  0  0  0  0  0  0  0  0  0
    0.1999   27.9296    7.6038 F   0  0  0  0  0  0  0  0  0  0  0  0
   -4.6828   32.7032    9.2945 C   0  0  0  0  0  0  0  0  0  0  0  0
   -6.4646   29.9329    7.3756 C   0  0  0  0  0  0  0  0  0  0  0  0
   -6.3334   28.9205    8.3169 C   0  0  0  0  0  0  0  0  0  0  0  0
   -5.7133   29.0689    9.5131 N   0  0  0  0  0  0  0  0  0  0  0  0
   -5.1990   30.2895    9.7837 C   0  0  0  0  0  0  0  0  0  0  0  0
   -5.2851   31.3777    8.9227 C   0  0  0  0  0  0  0  0  0  0  0  0
   -5.9252   31.1780    7.6946 C   0  0  0  0  0  0  0  0  0  0  0  0
   -7.0692   29.8516    6.1550 O   0  0  0  0  0  0  0  0  0  0  0  0
   -6.1738   29.6791    3.9532 C   0  0  0  0  0  0  0  0  0  0  0  0
   -6.5139   28.9223    5.2245 C   0  0  0  0  0  0  0  0  0  0  0  0
 21 22  1  0  0  0
 22 20  1  0  0  0
 20 14  1  0  0  0
 14 15  1  0  0  0
 15 16  2  0  0  0
 16 17  1  0  0  0
 17 18  2  0  0  0
 18 13  1  0  0  0
 13  1  1  0  0  0
  1  3  1  0  0  0
  3  4  1  0  0  0
  4  5  2  0  0  0
  5  6  1  0  0  0
  6  9  1  0  0  0
  9 10  1  0  0  0
  9 11  1  0  0  0
  9 12  1  0  0  0
  6  7  2  0  0  0
  7  8  1  0  0  0
 18 19  1  0  0  0
 19 14  2  0  0  0
  8  3  2  0  0  0
  1  2  1  0  0  0
M  END
> <minimizedAffinity>
-8.32237

$$$$
OCNT-2310437


 25 27  0  0  0  0  0  0  0  0999 V2000
   -5.7940   28.3557    5.0407 C   0  0  0  0  0  0  0  0  0  0  0  0
   -5.8783   27.0370    4.3183 C   0  0  0  0  0  0  0  0  0  0  0  0
   -6.1568   25.8584    5.0191 C   0  0  0  0  0  0  0  0  0  0  0  0
   -6.2117   24.6248    4.3579 C   0  0  0  0  0  0  0  0  0  0  0  0
   -5.9804   24.5418    2.9751 C   0  0  0  0  0  0  0  0  0  0  0  0
   -5.6906   25.7245    2.2847 C   0  0  0  0  0  0  0  0  0  0  0  0
   -5.4511   25.7399    0.9673 F   0  0  0  0  0  0  0  0  0  0  0  0
   -5.6356   26.9547    2.9441 C   0  0  0  0  0  0  0  0  0  0  0  0
   -6.0391   23.2812    2.3112 N   0  0  0  0  0  0  0  0  0  0  0  0
   -5.5292   22.0792    2.7661 C   0  0  0  0  0  0  0  0  0  0  0  0
   -5.8183   21.1427    1.8031 C   0  0  0  0  0  0  0  0  0  0  0  0
   -6.4886   21.7121    0.7643 N   0  0  0  0  0  0  0  0  0  0  0  0
   -6.6074   22.9820    1.0896 C   0  0  0  0  0  0  0  0  0  0  0  0
   -4.3870   30.4290    6.3825 O   0  0  0  0  0  0  0  0  0  0  0  0
   -4.4122   29.2976    6.8603 C   0  0  0  0  0  0  0  0  0  0  0  0
   -5.0327   28.2267    6.2571 N   0  0  0  0  0  0  0  0  0  0  0  0
   -5.1181   27.3655    6.7960 H   0  0  0  0  0  0  0  0  0  0  0  0
   -3.7775   28.9700    8.2159 C   0  0  0  0  0  0  0  0  0  0  0  0
   -2.3674   29.3529    8.2884 N   0  0  0  0  0  0  0  0  0  0  0  0
   -1.3688   28.3208    8.0225 C   0  0  0  0  0  0  0  0  0  0  0  0
    0.0099   28.9206    7.7625 C   0  0  0  0  0  0  0  0  0  0  0  0
    0.4047   29.6986    8.8932 O   0  0  0  0  0  0  0  0  0  0  0  0
   -0.4996   30.7767    9.0976 C   0  0  0  0  0  0  0  0  0  0  0  0
   -2.0067   30.4591    9.0517 C   0  0  0  0  0  0  0  0  0  0  0  0
   -2.8393   31.1647    9.6227 O   0  0  0  0  0  0  0  0  0  0  0  0
 14 15  2  0  0  0
 15 18  1  0  0  0
 18 19  1  0  0  0
 19 20  1  0  0  0
 20 21  1  0  0  0
 21 22  1  0  0  0
 22 23  1  0  0  0
 23 24  1  0  0  0
 24 25  2  0  0  0
 15 16  1  0  0  0
 16  1  1  0  0  0
  1  2  1  0  0  0
  2  3  1  0  0  0
  3  4  2  0  0  0
  4  5  1  0  0  0
  5  9  1  0  0  0
  9 10  1  0  0  0
 10 11  2  0  0  0
 11 12  1  0  0  0
 12 13  2  0  0  0
  5  6  2  0  0  0
  6  7  1  0  0  0
  6  8  1  0  0  0
 24 19  1  0  0  0
  8  2  2  0  0  0
 13  9  1  0  0  0
 16 17  1  0  0  0
M  END
> <minimizedAffinity>
-8.73355

$$$$
OCNT-2310440


 33 36  0  0  0  0  0  0  0  0999 V2000
   -4.9708   24.4016    3.8325 C   0  0  0  0  0  0  0  0  0  0  0  0
   -4.5853   24.5742    2.4984 C   0  0  0  0  0  0  0  0  0  0  0  0
   -3.6929   25.5904    2.1663 C   0  0  0  0  0  0  0  0  0  0  0  0
   -3.1885   26.4286    3.1641 C   0  0  0  0  0  0  0  0  0  0  0  0
   -3.5686   26.2630    4.5038 C   0  0  0  0  0  0  0  0  0  0  0  0
   -4.4534   25.2350    4.8340 C   0  0  0  0  0  0  0  0  0  0  0  0
   -5.4618   22.2271    4.5850 O   0  0  0  0  0  0  0  0  0  0  0  0
   -5.8999   23.3111    4.2218 C   0  0  0  0  0  0  0  0  0  0  0  0
   -7.2402   23.6161    4.1474 N   0  0  0  0  0  0  0  0  0  0  0  0
   -7.5354   24.5399    3.8677 H   0  0  0  0  0  0  0  0  0  0  0  0
   -8.2630   22.6311    4.4114 C   0  0  0  0  0  0  0  0  0  0  0  0
   -8.8017   22.7951    5.8092 C   0  0  0  0  0  0  0  0  0  0  0  0
   -9.9168   23.5997    6.0643 C   0  0  0  0  0  0  0  0  0  0  0  0
  -10.4210   23.7291    7.3639 C   0  0  0  0  0  0  0  0  0  0  0  0
   -9.8199   23.0482    8.4330 C   0  0  0  0  0  0  0  0  0  0  0  0
   -8.7064   22.2361    8.1766 C   0  0  0  0  0  0  0  0  0  0  0  0
   -8.2062   22.1116    6.8761 C   0  0  0  0  0  0  0  0  0  0  0  0
  -10.3350   23.1782    9.7562 N   0  0  0  0  0  0  0  0  0  0  0  0
  -10.5367   22.1740   10.6813 C   0  0  0  0  0  0  0  0  0  0  0  0
  -11.0412   22.7811   11.8067 C   0  0  0  0  0  0  0  0  0  0  0  0
  -11.1615   24.1256   11.6182 N   0  0  0  0  0  0  0  0  0  0  0  0
  -10.7377   24.3358   10.3907 C   0  0  0  0  0  0  0  0  0  0  0  0
   -3.0042   27.1501    5.4451 N   0  0  0  0  0  0  0  0  0  0  0  0
   -1.7131   27.1280    5.9412 C   0  0  0  0  0  0  0  0  0  0  0  0
   -0.8611   26.2744    5.7305 O   0  0  0  0  0  0  0  0  0  0  0  0
   -3.6428   27.8153    5.8607 H   0  0  0  0  0  0  0  0  0  0  0  0
   -1.3786   28.2442    6.8712 C   0  0  0  0  0  0  0  0  0  0  0  0
   -0.0789   28.3113    7.3949 C   0  0  0  0  0  0  0  0  0  0  0  0
    0.2722   29.3431    8.2673 C   0  0  0  0  0  0  0  0  0  0  0  0
   -0.6719   30.3072    8.6022 C   0  0  0  0  0  0  0  0  0  0  0  0
   -0.3356   31.2975    9.4381 F   0  0  0  0  0  0  0  0  0  0  0  0
   -1.9594   30.2648    8.0759 C   0  0  0  0  0  0  0  0  0  0  0  0
   -2.3167   29.2340    7.2032 C   0  0  0  0  0  0  0  0  0  0  0  0
  7  8  2  0  0  0
  8  9  1  0  0  0
  9 11  1  0  0  0
 11 12  1  0  0  0
 12 13  1  0  0  0
 13 14  2  0  0  0
 14 15  1  0  0  0
 15 18  1  0  0  0
 18 19  1  0  0  0
 19 20  2  0  0  0
 20 21  1  0  0  0
 21 22  2  0  0  0
 15 16  2  0  0  0
 16 17  1  0  0  0
  8  1  1  0  0  0
  1  2  1  0  0  0
  2  3  2  0  0  0
  3  4  1  0  0  0
  4  5  2  0  0  0
  5 23  1  0  0  0
 23 24  1  0  0  0
 24 25  2  0  0  0
 24 27  1  0  0  0
 27 28  1  0  0  0
 28 29  2  0  0  0
 29 30  1  0  0  0
 30 31  1  0  0  0
 30 32  2  0  0  0
 32 33  1  0  0  0
  5  6  1  0  0  0
 17 12  2  0  0  0
  6  1  2  0  0  0
 22 18  1  0  0  0
 33 27  2  0  0  0
  9 10  1  0  0  0
 23 26  1  0  0  0
M  END
> <minimizedAffinity>
-9.68236

$$$$
OCNT-2310442


 28 31  0  0  0  0  0  0  0  0999 V2000
   -3.4921   31.0590    7.4978 C   0  0  0  0  0  0  0  0  0  0  0  0
   -5.4561   31.4693    9.0897 C   0  0  0  0  0  0  0  0  0  0  0  0
   -6.4338   31.0160    9.9849 C   0  0  0  0  0  0  0  0  0  0  0  0
   -6.4912   29.6693   10.3415 C   0  0  0  0  0  0  0  0  0  0  0  0
   -5.5813   28.7700    9.7961 C   0  0  0  0  0  0  0  0  0  0  0  0
   -4.6225   29.2150    8.8822 C   0  0  0  0  0  0  0  0  0  0  0  0
   -4.5470   30.5684    8.5000 C   0  0  0  0  0  0  0  0  0  0  0  0
   -4.5086   33.5692    9.4927 C   0  0  0  0  0  0  0  0  0  0  0  0
   -5.4054   32.7874    8.7059 O   0  0  0  0  0  0  0  0  0  0  0  0
   -2.2201   30.3102    7.6665 N   0  0  0  0  0  0  0  0  0  0  0  0
   -1.6600   30.4398    9.0186 C   0  0  0  0  0  0  0  0  0  0  0  0
   -0.1291   30.4741    9.0773 C   0  0  0  0  0  0  0  0  0  0  0  0
    0.4971   29.4278    8.1656 C   0  0  0  0  0  0  0  0  0  0  0  0
   -0.1051   29.4598    6.7603 C   0  0  0  0  0  0  0  0  0  0  0  0
   -1.2337   30.4849    6.6057 C   0  0  0  0  0  0  0  0  0  0  0  0
   -4.0745   31.1578    6.0392 C   0  0  0  0  0  0  0  0  0  0  0  0
   -4.4948   29.8607    5.4800 N   0  0  0  0  0  0  0  0  0  0  0  0
   -3.8109   29.5559    4.7851 H   0  0  0  0  0  0  0  0  0  0  0  0
   -5.8349   29.8992    4.8694 C   0  0  0  0  0  0  0  0  0  0  0  0
   -6.8316   29.2272    5.8565 C   0  0  0  0  0  0  0  0  0  0  0  0
   -6.5674   27.7220    6.0850 C   0  0  0  0  0  0  0  0  0  0  0  0
   -6.2545   27.0460    4.8001 C   0  0  0  0  0  0  0  0  0  0  0  0
   -5.9367   27.7243    3.6464 C   0  0  0  0  0  0  0  0  0  0  0  0
   -5.8832   29.2011    3.4734 C   0  0  0  0  0  0  0  0  0  0  0  0
   -5.6947   26.7837    2.6939 N   0  0  0  0  0  0  0  0  0  0  0  0
   -5.8225   25.5275    3.1610 N   0  0  0  0  0  0  0  0  0  0  0  0
   -6.1659   25.6903    4.4435 C   0  0  0  0  0  0  0  0  0  0  0  0
   -5.4337   26.9141    1.7217 H   0  0  0  0  0  0  0  0  0  0  0  0
  8  9  1  0  0  0
  9  2  1  0  0  0
  2  3  2  0  0  0
  3  4  1  0  0  0
  4  5  2  0  0  0
  5  6  1  0  0  0
  6  7  2  0  0  0
  7  1  1  0  0  0
  1 16  1  0  0  0
 16 17  1  0  0  0
 17 19  1  0  0  0
 19 20  1  0  0  0
 20 21  1  0  0  0
 21 22  1  0  0  0
 22 23  2  0  0  0
 23 24  1  0  0  0
 23 25  1  0  0  0
 25 26  1  0  0  0
 26 27  2  0  0  0
  1 10  1  0  0  0
 10 11  1  0  0  0
 11 12  1  0  0  0
 12 13  1  0  0  0
 13 14  1  0  0  0
 14 15  1  0  0  0
  7  2  1  0  0  0
 24 19  1  0  0  0
 15 10  1  0  0  0
 27 22  1  0  0  0
 17 18  1  0  0  0
 25 28  1  0  0  0
M  END
> <minimizedAffinity>
-9.32448

$$$$
OCNT-2310447


 22 24  0  0  0  0  0  0  0  0999 V2000
   -6.8879   30.0243    6.3001 C   0  0  0  0  0  0  0  0  0  0  0  0
   -6.4960   28.9490    5.3299 C   0  0  0  0  0  0  0  0  0  0  0  0
   -6.1967   29.2340    3.9964 C   0  0  0  0  0  0  0  0  0  0  0  0
   -5.8182   28.2063    3.1309 C   0  0  0  0  0  0  0  0  0  0  0  0
   -5.7423   26.9083    3.6282 C   0  0  0  0  0  0  0  0  0  0  0  0
   -6.0197   26.6095    4.9231 N   0  0  0  0  0  0  0  0  0  0  0  0
   -6.3805   27.6265    5.7395 C   0  0  0  0  0  0  0  0  0  0  0  0
   -5.3620   25.8319    2.7807 N   0  0  0  0  0  0  0  0  0  0  0  0
   -5.7889   25.5383    1.5036 C   0  0  0  0  0  0  0  0  0  0  0  0
   -5.1158   24.3956    1.1368 C   0  0  0  0  0  0  0  0  0  0  0  0
   -4.2898   23.9726    2.1388 N   0  0  0  0  0  0  0  0  0  0  0  0
   -4.4556   24.8473    3.1079 C   0  0  0  0  0  0  0  0  0  0  0  0
   -5.7486   30.9222    8.2996 C   0  0  0  0  0  0  0  0  0  0  0  0
   -6.7735   30.8820    8.9758 O   0  0  0  0  0  0  0  0  0  0  0  0
   -5.7347   30.5709    6.9668 N   0  0  0  0  0  0  0  0  0  0  0  0
   -4.8280   30.5363    6.5158 H   0  0  0  0  0  0  0  0  0  0  0  0
   -4.5930   33.8882    8.9351 C   0  0  0  0  0  0  0  0  0  0  0  0
   -3.9209   32.5748    9.0977 C   0  0  0  0  0  0  0  0  0  0  0  0
   -4.4522   31.3241    8.8125 C   0  0  0  0  0  0  0  0  0  0  0  0
   -3.5244   30.3532    9.0984 O   0  0  0  0  0  0  0  0  0  0  0  0
   -2.4140   30.9797    9.5593 C   0  0  0  0  0  0  0  0  0  0  0  0
   -2.6023   32.3398    9.5792 C   0  0  0  0  0  0  0  0  0  0  0  0
 17 18  1  0  0  0
 18 19  2  0  0  0
 19 13  1  0  0  0
 13 14  2  0  0  0
 13 15  1  0  0  0
 15  1  1  0  0  0
  1  2  1  0  0  0
  2  3  2  0  0  0
  3  4  1  0  0  0
  4  5  2  0  0  0
  5  8  1  0  0  0
  8  9  1  0  0  0
  9 10  2  0  0  0
 10 11  1  0  0  0
 11 12  2  0  0  0
  5  6  1  0  0  0
  6  7  2  0  0  0
 19 20  1  0  0  0
 20 21  1  0  0  0
 21 22  2  0  0  0
 22 18  1  0  0  0
  7  2  1  0  0  0
 12  8  1  0  0  0
 15 16  1  0  0  0
M  END
> <minimizedAffinity>
-8.38512

$$$$
OCNT-2310448


 29 32  0  0  0  0  0  0  0  0999 V2000
   -1.6387   26.5043    5.9131 C   0  0  0  0  0  0  0  0  0  0  0  0
   -2.2607   26.0591    6.8768 O   0  0  0  0  0  0  0  0  0  0  0  0
   -0.9293   27.6972    5.9024 N   0  0  0  0  0  0  0  0  0  0  0  0
   -0.5512   27.9931    5.0034 H   0  0  0  0  0  0  0  0  0  0  0  0
   -0.7870   28.6287    6.9533 C   0  0  0  0  0  0  0  0  0  0  0  0
    0.3469   28.7319    7.7588 C   0  0  0  0  0  0  0  0  0  0  0  0
    0.3995   29.6752    8.7878 C   0  0  0  0  0  0  0  0  0  0  0  0
   -0.6771   30.5317    9.0116 C   0  0  0  0  0  0  0  0  0  0  0  0
   -1.8147   30.4647    8.2006 C   0  0  0  0  0  0  0  0  0  0  0  0
   -1.8644   29.4993    7.1822 C   0  0  0  0  0  0  0  0  0  0  0  0
   -2.9275   31.3731    8.4562 C   0  0  0  0  0  0  0  0  0  0  0  0
   -2.9608   32.6636    8.1739 N   0  0  0  0  0  0  0  0  0  0  0  0
   -4.1870   33.1266    8.5794 N   0  0  0  0  0  0  0  0  0  0  0  0
   -4.9207   32.1460    9.0810 N   0  0  0  0  0  0  0  0  0  0  0  0
   -4.1519   31.0494    8.9859 N   0  0  0  0  0  0  0  0  0  0  0  0
   -4.6855   29.7675    9.3527 C   0  0  0  0  0  0  0  0  0  0  0  0
   -0.3206   26.0907    3.8164 C   0  0  0  0  0  0  0  0  0  0  0  0
   -1.5353   25.6712    4.6399 C   0  0  0  0  0  0  0  0  0  0  0  0
   -2.7630   25.7254    3.8692 N   0  0  0  0  0  0  0  0  0  0  0  0
   -3.5117   26.8446    3.8065 N   0  0  0  0  0  0  0  0  0  0  0  0
   -4.5070   26.5357    2.9902 N   0  0  0  0  0  0  0  0  0  0  0  0
   -4.2991   25.2385    2.5713 C   0  0  0  0  0  0  0  0  0  0  0  0
   -3.1849   24.7038    3.1045 N   0  0  0  0  0  0  0  0  0  0  0  0
   -5.1942   24.5495    1.6510 C   0  0  0  0  0  0  0  0  0  0  0  0
   -5.2901   23.1499    1.6661 C   0  0  0  0  0  0  0  0  0  0  0  0
   -6.1473   22.4858    0.7842 C   0  0  0  0  0  0  0  0  0  0  0  0
   -6.9171   23.2131   -0.1214 C   0  0  0  0  0  0  0  0  0  0  0  0
   -6.8318   24.6036   -0.1476 C   0  0  0  0  0  0  0  0  0  0  0  0
   -5.9751   25.2685    0.7336 C   0  0  0  0  0  0  0  0  0  0  0  0
 17 18  1  0  0  0
 18  1  1  0  0  0
  1  2  2  0  0  0
  1  3  1  0  0  0
  3  5  1  0  0  0
  5  6  2  0  0  0
  6  7  1  0  0  0
  7  8  2  0  0  0
  8  9  1  0  0  0
  9 11  1  0  0  0
 11 12  2  0  0  0
 12 13  1  0  0  0
 13 14  2  0  0  0
 14 15  1  0  0  0
 15 16  1  0  0  0
  9 10  2  0  0  0
 18 19  1  0  0  0
 19 20  1  0  0  0
 20 21  2  0  0  0
 21 22  1  0  0  0
 22 24  1  0  0  0
 24 25  2  0  0  0
 25 26  1  0  0  0
 26 27  2  0  0  0
 27 28  1  0  0  0
 28 29  2  0  0  0
 22 23  2  0  0  0
 10  5  1  0  0  0
 23 19  1  0  0  0
 15 11  1  0  0  0
 29 24  1  0  0  0
  3  4  1  0  0  0
M  END
> <minimizedAffinity>
-10.43042

$$$$
OCNT-2310450


 28 32  0  0  0  0  0  0  0  0999 V2000
   -3.3714   24.4109    1.2403 O   0  0  0  0  0  0  0  0  0  0  0  0
   -4.4441   24.7859    1.7043 C   0  0  0  0  0  0  0  0  0  0  0  0
   -4.5638   25.7154    2.7360 N   0  0  0  0  0  0  0  0  0  0  0  0
   -3.3391   26.3852    3.1767 C   0  0  0  0  0  0  0  0  0  0  0  0
   -3.4199   26.8974    4.6246 C   0  0  0  0  0  0  0  0  0  0  0  0
   -4.6467   27.6888    4.8478 N   0  0  0  0  0  0  0  0  0  0  0  0
   -5.8800   26.9780    4.4495 C   0  0  0  0  0  0  0  0  0  0  0  0
   -5.7952   26.4723    3.0006 C   0  0  0  0  0  0  0  0  0  0  0  0
   -5.6799   24.1986    1.1475 C   0  0  0  0  0  0  0  0  0  0  0  0
   -6.2338   24.8176    0.0175 C   0  0  0  0  0  0  0  0  0  0  0  0
   -7.3928   24.3022   -0.5524 C   0  0  0  0  0  0  0  0  0  0  0  0
   -7.9975   23.1765    0.0074 C   0  0  0  0  0  0  0  0  0  0  0  0
   -7.4548   22.5573    1.1503 C   0  0  0  0  0  0  0  0  0  0  0  0
   -8.0426   21.4317    1.7330 C   0  0  0  0  0  0  0  0  0  0  0  0
   -7.5702   20.7948    2.8285 N   0  0  0  0  0  0  0  0  0  0  0  0
   -6.4573   21.3069    3.3879 C   0  0  0  0  0  0  0  0  0  0  0  0
   -5.7887   22.4158    2.8955 C   0  0  0  0  0  0  0  0  0  0  0  0
   -6.2833   23.0675    1.7474 C   0  0  0  0  0  0  0  0  0  0  0  0
   -4.7496   28.4443    5.9887 C   0  0  0  0  0  0  0  0  0  0  0  0
   -3.7273   29.0745    6.5307 N   0  0  0  0  0  0  0  0  0  0  0  0
   -4.0981   29.7391    7.6849 C   0  0  0  0  0  0  0  0  0  0  0  0
   -5.4214   29.6077    8.0353 C   0  0  0  0  0  0  0  0  0  0  0  0
   -6.2216   28.6210    6.8933 S   0  0  0  0  0  0  0  0  0  0  0  0
   -3.0494   30.5709    8.5050 C   0  0  0  0  0  0  0  0  0  0  0  0
   -3.3715   31.2502    9.6605 C   0  0  0  0  0  0  0  0  0  0  0  0
   -2.2469   31.9277   10.2168 C   0  0  0  0  0  0  0  0  0  0  0  0
   -1.1093   31.7388    9.4631 C   0  0  0  0  0  0  0  0  0  0  0  0
   -1.4031   30.7508    8.0966 S   0  0  0  0  0  0  0  0  0  0  0  0
  1  2  2  0  0  0
  2  9  1  0  0  0
  9 10  2  0  0  0
 10 11  1  0  0  0
 11 12  2  0  0  0
 12 13  1  0  0  0
 13 14  2  0  0  0
 14 15  1  0  0  0
 15 16  2  0  0  0
 16 17  1  0  0  0
 17 18  2  0  0  0
  2  3  1  0  0  0
  3  4  1  0  0  0
  4  5  1  0  0  0
  5  6  1  0  0  0
  6 19  1  0  0  0
 19 20  2  0  0  0
 20 21  1  0  0  0
 21 24  1  0  0  0
 24 25  2  0  0  0
 25 26  1  0  0  0
 26 27  2  0  0  0
 27 28  1  0  0  0
 21 22  2  0  0  0
 22 23  1  0  0  0
  6  7  1  0  0  0
  7  8  1  0  0  0
 18  9  1  0  0  0
  8  3  1  0  0  0
 18 13  1  0  0  0
 23 19  1  0  0  0
 28 24  1  0  0  0
M  END
> <minimizedAffinity>
-9.87198

$$$$
OCNT-2310453


 25 27  0  0  0  0  0  0  0  0999 V2000
   -5.6508   23.5083    2.1972 C   0  0  0  0  0  0  0  0  0  0  0  0
   -5.6377   22.3637    1.1302 C   0  0  0  0  0  0  0  0  0  0  0  0
   -6.9301   22.2998    0.3183 C   0  0  0  0  0  0  0  0  0  0  0  0
   -7.1176   23.5701   -0.5140 C   0  0  0  0  0  0  0  0  0  0  0  0
   -6.4712   24.8027    0.1205 C   0  0  0  0  0  0  0  0  0  0  0  0
   -6.4909   24.7103    1.6436 C   0  0  0  0  0  0  0  0  0  0  0  0
   -6.2623   23.1328    3.5693 C   0  0  0  0  0  0  0  0  0  0  0  0
   -7.6475   23.1147    3.8104 C   0  0  0  0  0  0  0  0  0  0  0  0
   -8.1630   22.7704    5.0662 C   0  0  0  0  0  0  0  0  0  0  0  0
   -7.3021   22.4411    6.1069 C   0  0  0  0  0  0  0  0  0  0  0  0
   -7.9402   22.0198    7.6473 Cl  0  0  0  0  0  0  0  0  0  0  0  0
   -5.9281   22.4573    5.9052 C   0  0  0  0  0  0  0  0  0  0  0  0
   -5.4149   22.8031    4.6512 C   0  0  0  0  0  0  0  0  0  0  0  0
   -4.2483   23.9824    2.3479 N   0  0  0  0  0  0  0  0  0  0  0  0
   -3.6740   23.5505    1.6227 H   0  0  0  0  0  0  0  0  0  0  0  0
   -4.0672   25.4348    2.2530 C   0  0  0  0  0  0  0  0  0  0  0  0
   -3.9126   26.7579    4.4585 N   0  0  0  0  0  0  0  0  0  0  0  0
   -2.9463   26.9990    5.3726 N   0  0  0  0  0  0  0  0  0  0  0  0
   -1.8886   26.3125    4.9791 N   0  0  0  0  0  0  0  0  0  0  0  0
   -2.1451   25.6507    3.8145 N   0  0  0  0  0  0  0  0  0  0  0  0
   -3.3901   25.9402    3.4797 C   0  0  0  0  0  0  0  0  0  0  0  0
   -5.1560   28.5025    5.6727 C   0  0  0  0  0  0  0  0  0  0  0  0
   -5.2302   27.3890    4.6120 C   0  0  0  0  0  0  0  0  0  0  0  0
   -6.2938   26.3655    5.0930 C   0  0  0  0  0  0  0  0  0  0  0  0
   -5.7491   27.9575    3.2785 C   0  0  0  0  0  0  0  0  0  0  0  0
 22 23  1  0  0  0
 23 24  1  0  0  0
 23 25  1  0  0  0
 23 17  1  0  0  0
 17 18  1  0  0  0
 18 19  2  0  0  0
 19 20  1  0  0  0
 20 21  2  0  0  0
 21 16  1  0  0  0
 16 14  1  0  0  0
 14  1  1  0  0  0
  1  7  1  0  0  0
  7  8  1  0  0  0
  8  9  2  0  0  0
  9 10  1  0  0  0
 10 11  1  0  0  0
 10 12  2  0  0  0
 12 13  1  0  0  0
  1  2  1  0  0  0
  2  3  1  0  0  0
  3  4  1  0  0  0
  4  5  1  0  0  0
  5  6  1  0  0  0
 21 17  1  0  0  0
  6  1  1  0  0  0
 13  7  2  0  0  0
 14 15  1  0  0  0
M  END
> <minimizedAffinity>
-8.75383

$$$$
OCNT-2310458


 26 28  0  0  0  0  0  0  0  0999 V2000
   -0.2247   27.4602    7.0334 N   0  0  0  0  0  0  0  0  0  0  0  0
   -0.5947   27.2247    7.9544 H   0  0  0  0  0  0  0  0  0  0  0  0
   -3.2587   26.6954    5.0187 C   0  0  0  0  0  0  0  0  0  0  0  0
   -2.3884   27.1891    6.0103 C   0  0  0  0  0  0  0  0  0  0  0  0
   -1.0045   27.0110    5.9211 C   0  0  0  0  0  0  0  0  0  0  0  0
   -0.4959   26.2721    4.8557 C   0  0  0  0  0  0  0  0  0  0  0  0
   -1.3474   25.7787    3.8586 C   0  0  0  0  0  0  0  0  0  0  0  0
   -2.7269   25.9861    3.9294 C   0  0  0  0  0  0  0  0  0  0  0  0
   -3.6272   25.5538    2.9941 O   0  0  0  0  0  0  0  0  0  0  0  0
   -3.8618   24.1549    2.9020 C   0  0  0  0  0  0  0  0  0  0  0  0
   -4.7477   26.9157    5.1641 C   0  0  0  0  0  0  0  0  0  0  0  0
   -5.9212   28.1307    3.4865 C   0  0  0  0  0  0  0  0  0  0  0  0
   -5.1543   28.1954    4.6790 O   0  0  0  0  0  0  0  0  0  0  0  0
    0.4710   28.9936    7.0923 S   0  0  0  0  0  0  0  0  0  0  0  0
    1.4414   29.0422    8.1625 O   0  0  0  0  0  0  0  0  0  0  0  0
    0.8197   29.3164    5.7254 O   0  0  0  0  0  0  0  0  0  0  0  0
   -0.8140   30.1456    7.5115 C   0  0  0  0  0  0  0  0  0  0  0  0
   -1.7897   30.7618    6.7563 C   0  0  0  0  0  0  0  0  0  0  0  0
   -2.6276   31.6351    7.5251 C   0  0  0  0  0  0  0  0  0  0  0  0
   -3.7305   32.4318    7.1335 C   0  0  0  0  0  0  0  0  0  0  0  0
   -4.3990   33.2130    8.0793 C   0  0  0  0  0  0  0  0  0  0  0  0
   -5.7391   34.1751    7.5881 Cl  0  0  0  0  0  0  0  0  0  0  0  0
   -3.9963   33.2220    9.4071 C   0  0  0  0  0  0  0  0  0  0  0  0
   -2.9103   32.4455    9.8197 C   0  0  0  0  0  0  0  0  0  0  0  0
   -2.2360   31.6570    8.8666 C   0  0  0  0  0  0  0  0  0  0  0  0
   -0.8813   30.6310    9.1428 S   0  0  0  0  0  0  0  0  0  0  0  0
 12 13  1  0  0  0
 13 11  1  0  0  0
 11  3  1  0  0  0
  3  4  1  0  0  0
  4  5  2  0  0  0
  5  1  1  0  0  0
  1 14  1  0  0  0
 14 15  2  0  0  0
 14 16  2  0  0  0
 14 17  1  0  0  0
 17 18  2  0  0  0
 18 19  1  0  0  0
 19 20  2  0  0  0
 20 21  1  0  0  0
 21 22  1  0  0  0
 21 23  2  0  0  0
 23 24  1  0  0  0
 24 25  2  0  0  0
 25 26  1  0  0  0
  5  6  1  0  0  0
  6  7  2  0  0  0
  7  8  1  0  0  0
  8  9  1  0  0  0
  9 10  1  0  0  0
  8  3  2  0  0  0
 26 17  1  0  0  0
 25 19  1  0  0  0
  1  2  1  0  0  0
M  END
> <minimizedAffinity>
-8.97519

$$$$
OCNT-2310465


 26 28  0  0  0  0  0  0  0  0999 V2000
   -4.9361   27.5820    5.3546 C   0  0  0  0  0  0  0  0  0  0  0  0
   -5.9463   27.8651    5.9882 O   0  0  0  0  0  0  0  0  0  0  0  0
   -3.6639   28.0781    5.5818 N   0  0  0  0  0  0  0  0  0  0  0  0
   -2.9381   27.8378    4.9180 H   0  0  0  0  0  0  0  0  0  0  0  0
   -5.2183   24.7478    2.2258 C   0  0  0  0  0  0  0  0  0  0  0  0
   -5.7404   26.0092    1.9842 C   0  0  0  0  0  0  0  0  0  0  0  0
   -5.6590   26.9749    2.9880 C   0  0  0  0  0  0  0  0  0  0  0  0
   -5.0723   26.6404    4.2108 C   0  0  0  0  0  0  0  0  0  0  0  0
   -4.5671   25.3502    4.3499 C   0  0  0  0  0  0  0  0  0  0  0  0
   -4.6326   24.3962    3.3863 N   0  0  0  0  0  0  0  0  0  0  0  0
   -5.3364   23.8370    1.1975 O   0  0  0  0  0  0  0  0  0  0  0  0
   -6.1064   21.5944    1.2402 C   0  0  0  0  0  0  0  0  0  0  0  0
   -6.5409   23.0582    1.2018 C   0  0  0  0  0  0  0  0  0  0  0  0
   -7.3409   23.3354   -0.0676 C   0  0  0  0  0  0  0  0  0  0  0  0
   -3.2554   28.9471    6.6183 C   0  0  0  0  0  0  0  0  0  0  0  0
   -2.2113   28.5133    7.4425 C   0  0  0  0  0  0  0  0  0  0  0  0
   -1.7628   29.3103    8.4961 C   0  0  0  0  0  0  0  0  0  0  0  0
   -2.3516   30.5533    8.7284 C   0  0  0  0  0  0  0  0  0  0  0  0
   -3.3928   31.0161    7.9131 C   0  0  0  0  0  0  0  0  0  0  0  0
   -3.8396   30.1942    6.8643 C   0  0  0  0  0  0  0  0  0  0  0  0
   -3.9848   32.3291    8.1791 C   0  0  0  0  0  0  0  0  0  0  0  0
   -3.8735   33.0392    9.2889 N   0  0  0  0  0  0  0  0  0  0  0  0
   -4.5777   34.2121    9.1345 N   0  0  0  0  0  0  0  0  0  0  0  0
   -5.1024   34.2004    7.9346 C   0  0  0  0  0  0  0  0  0  0  0  0
   -4.7550   33.0504    7.2973 N   0  0  0  0  0  0  0  0  0  0  0  0
   -5.0026   32.7843    6.3547 H   0  0  0  0  0  0  0  0  0  0  0  0
 12 13  1  0  0  0
 13 14  1  0  0  0
 13 11  1  0  0  0
 11  5  1  0  0  0
  5  6  2  0  0  0
  6  7  1  0  0  0
  7  8  2  0  0  0
  8  1  1  0  0  0
  1  2  2  0  0  0
  1  3  1  0  0  0
  3 15  1  0  0  0
 15 16  2  0  0  0
 16 17  1  0  0  0
 17 18  2  0  0  0
 18 19  1  0  0  0
 19 21  1  0  0  0
 21 22  2  0  0  0
 22 23  1  0  0  0
 23 24  2  0  0  0
 24 25  1  0  0  0
 19 20  2  0  0  0
  8  9  1  0  0  0
  9 10  2  0  0  0
 10  5  1  0  0  0
 20 15  1  0  0  0
 25 21  1  0  0  0
  3  4  1  0  0  0
 25 26  1  0  0  0
M  END
> <minimizedAffinity>
-8.94590

$$$$
OCNT-2310469


 27 29  0  0  0  0  0  0  0  0999 V2000
   -3.7437   26.6062    4.0938 N   0  0  0  0  0  0  0  0  0  0  0  0
   -4.1970   27.2799    5.2069 C   0  0  0  0  0  0  0  0  0  0  0  0
   -5.3352   27.2814    5.6540 O   0  0  0  0  0  0  0  0  0  0  0  0
   -3.1710   28.0025    5.7863 N   0  0  0  0  0  0  0  0  0  0  0  0
   -2.8358   26.8938    3.7609 H   0  0  0  0  0  0  0  0  0  0  0  0
   -2.2545   27.5877    5.6995 H   0  0  0  0  0  0  0  0  0  0  0  0
   -5.8472   23.8220    1.7435 C   0  0  0  0  0  0  0  0  0  0  0  0
   -6.0310   25.1824    1.4946 C   0  0  0  0  0  0  0  0  0  0  0  0
   -5.3448   26.1258    2.2667 C   0  0  0  0  0  0  0  0  0  0  0  0
   -4.4641   25.7169    3.2726 C   0  0  0  0  0  0  0  0  0  0  0  0
   -4.2806   24.3451    3.4998 C   0  0  0  0  0  0  0  0  0  0  0  0
   -4.9652   23.3953    2.7361 C   0  0  0  0  0  0  0  0  0  0  0  0
   -7.5847   23.6294   -0.4224 C   0  0  0  0  0  0  0  0  0  0  0  0
   -6.7179   22.6280    0.7573 S   0  0  0  0  0  0  0  0  0  0  0  0
   -5.7266   21.8433    0.0472 O   0  0  0  0  0  0  0  0  0  0  0  0
   -7.7034   21.9889    1.6089 O   0  0  0  0  0  0  0  0  0  0  0  0
   -3.4128   28.7558    7.0086 C   0  0  0  0  0  0  0  0  0  0  0  0
   -2.1505   28.9333    7.8516 C   0  0  0  0  0  0  0  0  0  0  0  0
   -2.4898   30.1381    8.7203 C   0  0  0  0  0  0  0  0  0  0  0  0
   -3.2560   30.9867    7.8230 N   0  0  0  0  0  0  0  0  0  0  0  0
   -3.8876   30.2027    6.7602 C   0  0  0  0  0  0  0  0  0  0  0  0
   -3.8253   32.1838    8.1898 C   0  0  0  0  0  0  0  0  0  0  0  0
   -3.7264   32.6832    9.4884 C   0  0  0  0  0  0  0  0  0  0  0  0
   -4.3022   33.9117    9.8170 C   0  0  0  0  0  0  0  0  0  0  0  0
   -4.9656   34.6318    8.8383 C   0  0  0  0  0  0  0  0  0  0  0  0
   -5.0179   34.0872    7.5714 C   0  0  0  0  0  0  0  0  0  0  0  0
   -4.4657   32.8991    7.2367 N   0  0  0  0  0  0  0  0  0  0  0  0
 13 14  1  0  0  0
 14 15  2  0  0  0
 14 16  2  0  0  0
 14  7  1  0  0  0
  7  8  1  0  0  0
  8  9  2  0  0  0
  9 10  1  0  0  0
 10  1  1  0  0  0
  1  2  1  0  0  0
  2  3  2  0  0  0
  2  4  1  0  0  0
  4 17  1  0  0  0
 17 18  1  0  0  0
 18 19  1  0  0  0
 19 20  1  0  0  0
 20 22  1  0  0  0
 22 23  2  0  0  0
 23 24  1  0  0  0
 24 25  2  0  0  0
 25 26  1  0  0  0
 26 27  2  0  0  0
 20 21  1  0  0  0
 10 11  2  0  0  0
 11 12  1  0  0  0
 12  7  2  0  0  0
 21 17  1  0  0  0
 27 22  1  0  0  0
  1  5  1  0  0  0
  4  6  1  0  0  0
M  END
> <minimizedAffinity>
-9.03857

$$$$
OCNT-2310470


 29 32  0  0  0  0  0  0  0  0999 V2000
   -5.4781   32.2607    8.3011 C   0  0  0  0  0  0  0  0  0  0  0  0
   -6.1649   32.9576    7.5436 O   0  0  0  0  0  0  0  0  0  0  0  0
   -5.7922   30.9242    8.5130 N   0  0  0  0  0  0  0  0  0  0  0  0
   -4.8486   29.8744    8.8784 C   0  0  0  0  0  0  0  0  0  0  0  0
   -4.3611   29.1538    7.6213 C   0  0  0  0  0  0  0  0  0  0  0  0
   -5.5499   28.6495    6.7758 C   0  0  0  0  0  0  0  0  0  0  0  0
   -6.6406   29.7176    6.5525 C   0  0  0  0  0  0  0  0  0  0  0  0
   -6.9989   30.4072    7.8677 C   0  0  0  0  0  0  0  0  0  0  0  0
   -5.1098   27.9486    5.4907 C   0  0  0  0  0  0  0  0  0  0  0  0
   -6.0377   27.9617    4.4263 C   0  0  0  0  0  0  0  0  0  0  0  0
   -5.7587   27.3484    3.2098 C   0  0  0  0  0  0  0  0  0  0  0  0
   -4.5428   26.7043    3.0276 C   0  0  0  0  0  0  0  0  0  0  0  0
   -3.5933   26.6695    4.0590 C   0  0  0  0  0  0  0  0  0  0  0  0
   -2.3692   26.0197    3.8734 C   0  0  0  0  0  0  0  0  0  0  0  0
   -1.3912   25.9309    4.7996 N   0  0  0  0  0  0  0  0  0  0  0  0
   -1.6420   26.5258    5.9775 C   0  0  0  0  0  0  0  0  0  0  0  0
   -2.8234   27.1947    6.2709 C   0  0  0  0  0  0  0  0  0  0  0  0
   -3.8521   27.2886    5.3068 C   0  0  0  0  0  0  0  0  0  0  0  0
   -4.2743   32.9195    8.9836 C   0  0  0  0  0  0  0  0  0  0  0  0
   -4.6643   34.1393    9.8158 C   0  0  0  0  0  0  0  0  0  0  0  0
   -3.0779   33.1859    8.0584 C   0  0  0  0  0  0  0  0  0  0  0  0
   -0.2873   29.8865    7.8152 C   0  0  0  0  0  0  0  0  0  0  0  0
   -0.9295   30.3501    6.6673 C   0  0  0  0  0  0  0  0  0  0  0  0
   -1.8343   31.4150    6.7475 C   0  0  0  0  0  0  0  0  0  0  0  0
   -2.1093   32.0292    7.9758 C   0  0  0  0  0  0  0  0  0  0  0  0
   -1.4593   31.5622    9.1237 C   0  0  0  0  0  0  0  0  0  0  0  0
   -0.5587   30.4979    9.0408 C   0  0  0  0  0  0  0  0  0  0  0  0
    1.6458   28.9677    8.8468 C   0  0  0  0  0  0  0  0  0  0  0  0
    0.6123   28.8578    7.8761 O   0  0  0  0  0  0  0  0  0  0  0  0
 28 29  1  0  0  0
 29 22  1  0  0  0
 22 23  1  0  0  0
 23 24  2  0  0  0
 24 25  1  0  0  0
 25 21  1  0  0  0
 21 19  1  0  0  0
 19 20  1  0  0  0
 19  1  1  0  0  0
  1  2  2  0  0  0
  1  3  1  0  0  0
  3  4  1  0  0  0
  4  5  1  0  0  0
  5  6  1  0  0  0
  6  9  1  0  0  0
  9 10  2  0  0  0
 10 11  1  0  0  0
 11 12  2  0  0  0
 12 13  1  0  0  0
 13 14  2  0  0  0
 14 15  1  0  0  0
 15 16  2  0  0  0
 16 17  1  0  0  0
 17 18  2  0  0  0
  6  7  1  0  0  0
  7  8  1  0  0  0
 25 26  2  0  0  0
 26 27  1  0  0  0
 27 22  2  0  0  0
  8  3  1  0  0  0
 18  9  1  0  0  0
 18 13  1  0  0  0
M  END
> <minimizedAffinity>
-9.95955

$$$$
OCNT-2310478


 26 28  0  0  0  0  0  0  0  0999 V2000
   -4.2607   25.8456    4.9224 N   0  0  0  0  0  0  0  0  0  0  0  0
   -3.1025   25.8728    5.8433 C   0  0  0  0  0  0  0  0  0  0  0  0
   -2.3872   27.2399    5.9423 C   0  0  0  0  0  0  0  0  0  0  0  0
   -3.2605   28.3708    6.3203 N   0  0  0  0  0  0  0  0  0  0  0  0
   -4.6567   28.1189    5.9053 C   0  0  0  0  0  0  0  0  0  0  0  0
   -4.7656   27.2068    4.6635 C   0  0  0  0  0  0  0  0  0  0  0  0
   -4.0022   25.0693    3.6804 C   0  0  0  0  0  0  0  0  0  0  0  0
   -3.5157   25.9585    2.5201 C   0  0  0  0  0  0  0  0  0  0  0  0
   -7.2943   23.1348    0.4763 C   0  0  0  0  0  0  0  0  0  0  0  0
   -6.7558   23.4323    1.8271 C   0  0  0  0  0  0  0  0  0  0  0  0
   -7.3039   23.0576    3.0377 C   0  0  0  0  0  0  0  0  0  0  0  0
   -6.3293   23.6192    4.3279 S   0  0  0  0  0  0  0  0  0  0  0  0
   -5.2444   24.3269    3.1876 C   0  0  0  0  0  0  0  0  0  0  0  0
   -5.5776   24.1516    1.9229 N   0  0  0  0  0  0  0  0  0  0  0  0
   -3.1633   28.6702    7.7638 C   0  0  0  0  0  0  0  0  0  0  0  0
   -4.4671   29.2010    8.4278 C   0  0  0  0  0  0  0  0  0  0  0  0
   -4.6821   28.5862    9.7010 O   0  0  0  0  0  0  0  0  0  0  0  0
   -4.6536   27.6241    9.5701 H   0  0  0  0  0  0  0  0  0  0  0  0
   -4.5203   30.7099    8.5905 C   0  0  0  0  0  0  0  0  0  0  0  0
   -3.4316   31.3430    9.2288 C   0  0  0  0  0  0  0  0  0  0  0  0
   -3.4113   32.7245    9.4235 C   0  0  0  0  0  0  0  0  0  0  0  0
   -4.4786   33.4898    8.9810 C   0  0  0  0  0  0  0  0  0  0  0  0
   -4.4611   34.8160    9.1676 F   0  0  0  0  0  0  0  0  0  0  0  0
   -5.5639   32.9023    8.3482 C   0  0  0  0  0  0  0  0  0  0  0  0
   -5.5882   31.5174    8.1515 C   0  0  0  0  0  0  0  0  0  0  0  0
   -6.9819   30.8832    7.3465 Cl  0  0  0  0  0  0  0  0  0  0  0  0
  9 10  1  0  0  0
 10 11  2  0  0  0
 11 12  1  0  0  0
 12 13  1  0  0  0
 13  7  1  0  0  0
  7  8  1  0  0  0
  7  1  1  0  0  0
  1  2  1  0  0  0
  2  3  1  0  0  0
  3  4  1  0  0  0
  4 15  1  0  0  0
 15 16  1  0  0  0
 16 17  1  0  0  0
 16 19  1  0  0  0
 19 20  1  0  0  0
 20 21  2  0  0  0
 21 22  1  0  0  0
 22 23  1  0  0  0
 22 24  2  0  0  0
 24 25  1  0  0  0
 25 26  1  0  0  0
  4  5  1  0  0  0
  5  6  1  0  0  0
 13 14  2  0  0  0
 14 10  1  0  0  0
  6  1  1  0  0  0
 25 19  2  0  0  0
 17 18  1  0  0  0
M  END
> <minimizedAffinity>
-8.40929

$$$$
OCNT-2310481


 28 30  0  0  0  0  0  0  0  0999 V2000
   -4.8226   29.0518    8.0867 N   0  0  0  0  0  0  0  0  0  0  0  0
   -3.8003   28.4292    7.4252 C   0  0  0  0  0  0  0  0  0  0  0  0
   -2.6438   28.3936    7.8210 O   0  0  0  0  0  0  0  0  0  0  0  0
   -4.2402   27.8522    6.2628 N   0  0  0  0  0  0  0  0  0  0  0  0
   -5.7545   28.7317    7.8766 H   0  0  0  0  0  0  0  0  0  0  0  0
   -5.0474   28.2909    5.8464 H   0  0  0  0  0  0  0  0  0  0  0  0
   -4.6111   29.6915    9.3714 C   0  0  0  0  0  0  0  0  0  0  0  0
   -5.7981   29.5067   10.3150 C   0  0  0  0  0  0  0  0  0  0  0  0
   -1.6650   31.2475    9.4507 C   0  0  0  0  0  0  0  0  0  0  0  0
   -3.0094   31.7972    9.1428 C   0  0  0  0  0  0  0  0  0  0  0  0
   -3.1276   33.0985    8.8502 N   0  0  0  0  0  0  0  0  0  0  0  0
   -4.4386   33.2699    8.6266 N   0  0  0  0  0  0  0  0  0  0  0  0
   -4.9345   34.5785    8.2775 C   0  0  0  0  0  0  0  0  0  0  0  0
   -5.1639   32.1282    8.7693 C   0  0  0  0  0  0  0  0  0  0  0  0
   -4.2700   31.1272    9.1050 C   0  0  0  0  0  0  0  0  0  0  0  0
   -3.3109   27.2215    5.3524 C   0  0  0  0  0  0  0  0  0  0  0  0
   -4.0361   26.4970    4.2472 C   0  0  0  0  0  0  0  0  0  0  0  0
   -5.1236   27.0927    3.5992 C   0  0  0  0  0  0  0  0  0  0  0  0
   -5.8192   26.4155    2.5891 C   0  0  0  0  0  0  0  0  0  0  0  0
   -5.4434   25.1174    2.2061 C   0  0  0  0  0  0  0  0  0  0  0  0
   -4.3592   24.5263    2.8657 C   0  0  0  0  0  0  0  0  0  0  0  0
   -3.9326   23.2902    2.5755 F   0  0  0  0  0  0  0  0  0  0  0  0
   -3.6662   25.2022    3.8734 C   0  0  0  0  0  0  0  0  0  0  0  0
   -6.1589   24.4362    1.1776 N   0  0  0  0  0  0  0  0  0  0  0  0
   -6.4746   24.8847   -0.0881 C   0  0  0  0  0  0  0  0  0  0  0  0
   -7.1676   23.8695   -0.7029 C   0  0  0  0  0  0  0  0  0  0  0  0
   -7.2983   22.8009    0.1309 N   0  0  0  0  0  0  0  0  0  0  0  0
   -6.6923   23.1623    1.2406 C   0  0  0  0  0  0  0  0  0  0  0  0
  9 10  1  0  0  0
 10 11  2  0  0  0
 11 12  1  0  0  0
 12 13  1  0  0  0
 12 14  1  0  0  0
 14 15  2  0  0  0
 15  7  1  0  0  0
  7  8  1  0  0  0
  7  1  1  0  0  0
  1  2  1  0  0  0
  2  3  2  0  0  0
  2  4  1  0  0  0
  4 16  1  0  0  0
 16 17  1  0  0  0
 17 18  1  0  0  0
 18 19  2  0  0  0
 19 20  1  0  0  0
 20 24  1  0  0  0
 24 25  1  0  0  0
 25 26  2  0  0  0
 26 27  1  0  0  0
 27 28  2  0  0  0
 20 21  2  0  0  0
 21 22  1  0  0  0
 21 23  1  0  0  0
 15 10  1  0  0  0
 23 17  2  0  0  0
 28 24  1  0  0  0
  1  5  1  0  0  0
  4  6  1  0  0  0
M  END
> <minimizedAffinity>
-9.11797

$$$$
OCNT-2310486


 26 29  0  0  0  0  0  0  0  0999 V2000
   -5.4760   30.6452    6.7190 C   0  0  0  0  0  0  0  0  0  0  0  0
   -6.5111   30.3056    7.2833 O   0  0  0  0  0  0  0  0  0  0  0  0
   -5.2467   30.3695    5.3876 N   0  0  0  0  0  0  0  0  0  0  0  0
   -4.2776   30.3511    5.1032 H   0  0  0  0  0  0  0  0  0  0  0  0
   -4.2419   32.6012    7.9193 C   0  0  0  0  0  0  0  0  0  0  0  0
   -4.3945   31.3072    7.3993 C   0  0  0  0  0  0  0  0  0  0  0  0
   -3.2135   30.6884    7.7340 N   0  0  0  0  0  0  0  0  0  0  0  0
   -2.6476   29.4385    7.5879 C   0  0  0  0  0  0  0  0  0  0  0  0
   -1.4048   29.3846    8.1030 C   0  0  0  0  0  0  0  0  0  0  0  0
   -0.4957   28.2068    8.1319 C   0  0  0  0  0  0  0  0  0  0  0  0
   -0.8904   30.9400    8.8002 S   0  0  0  0  0  0  0  0  0  0  0  0
   -2.4282   31.6089    8.3549 C   0  0  0  0  0  0  0  0  0  0  0  0
   -2.9889   32.7746    8.4905 N   0  0  0  0  0  0  0  0  0  0  0  0
   -4.7658   34.8167    8.9678 C   0  0  0  0  0  0  0  0  0  0  0  0
   -5.2071   33.7399    7.9888 C   0  0  0  0  0  0  0  0  0  0  0  0
   -6.1812   29.5683    4.6214 C   0  0  0  0  0  0  0  0  0  0  0  0
   -5.6933   28.1372    4.3610 C   0  0  0  0  0  0  0  0  0  0  0  0
   -5.8869   27.7009    2.8806 C   0  0  0  0  0  0  0  0  0  0  0  0
   -5.2509   26.3234    2.5890 C   0  0  0  0  0  0  0  0  0  0  0  0
   -5.5777   25.3619    3.6697 C   0  0  0  0  0  0  0  0  0  0  0  0
   -6.0470   25.7470    4.9044 C   0  0  0  0  0  0  0  0  0  0  0  0
   -6.3417   27.1306    5.3507 C   0  0  0  0  0  0  0  0  0  0  0  0
   -6.2176   24.6066    5.6285 N   0  0  0  0  0  0  0  0  0  0  0  0
   -5.8853   23.4983    4.9397 N   0  0  0  0  0  0  0  0  0  0  0  0
   -5.4930   23.9618    3.7477 C   0  0  0  0  0  0  0  0  0  0  0  0
   -6.5536   24.5011    6.5804 H   0  0  0  0  0  0  0  0  0  0  0  0
 14 15  1  0  0  0
 15  5  1  0  0  0
  5  6  2  0  0  0
  6  1  1  0  0  0
  1  2  2  0  0  0
  1  3  1  0  0  0
  3 16  1  0  0  0
 16 17  1  0  0  0
 17 18  1  0  0  0
 18 19  1  0  0  0
 19 20  1  0  0  0
 20 21  2  0  0  0
 21 22  1  0  0  0
 21 23  1  0  0  0
 23 24  1  0  0  0
 24 25  2  0  0  0
  6  7  1  0  0  0
  7  8  1  0  0  0
  8  9  2  0  0  0
  9 10  1  0  0  0
  9 11  1  0  0  0
 11 12  1  0  0  0
 12 13  2  0  0  0
 13  5  1  0  0  0
 22 17  1  0  0  0
 12  7  1  0  0  0
 25 20  1  0  0  0
  3  4  1  0  0  0
 23 26  1  0  0  0
M  END
> <minimizedAffinity>
-9.21048

$$$$
OCNT-2310492


 31 34  0  0  0  0  0  0  0  0999 V2000
   -1.6850   25.9958    4.9765 C   0  0  0  0  0  0  0  0  0  0  0  0
   -0.6919   26.0894    3.8097 C   0  0  0  0  0  0  0  0  0  0  0  0
   -1.3619   27.0027    6.0719 C   0  0  0  0  0  0  0  0  0  0  0  0
   -2.2544   27.1727    7.1394 C   0  0  0  0  0  0  0  0  0  0  0  0
   -1.9917   28.1009    8.1497 C   0  0  0  0  0  0  0  0  0  0  0  0
   -0.8360   28.8820    8.1164 C   0  0  0  0  0  0  0  0  0  0  0  0
    0.0559   28.7289    7.0562 C   0  0  0  0  0  0  0  0  0  0  0  0
   -0.2074   27.8002    6.0412 C   0  0  0  0  0  0  0  0  0  0  0  0
   -0.7041   29.7496    9.1648 O   0  0  0  0  0  0  0  0  0  0  0  0
   -0.5855   31.1367    8.8508 C   0  0  0  0  0  0  0  0  0  0  0  0
   -1.9530   31.6973    8.5700 C   0  0  0  0  0  0  0  0  0  0  0  0
   -2.7673   32.1993    9.5902 C   0  0  0  0  0  0  0  0  0  0  0  0
   -4.0400   32.6753    9.2897 C   0  0  0  0  0  0  0  0  0  0  0  0
   -4.4641   32.6253    7.9726 C   0  0  0  0  0  0  0  0  0  0  0  0
   -3.7143   32.1382    6.9609 N   0  0  0  0  0  0  0  0  0  0  0  0
   -2.4801   31.6872    7.2824 C   0  0  0  0  0  0  0  0  0  0  0  0
   -3.0405   26.1757    4.4329 N   0  0  0  0  0  0  0  0  0  0  0  0
   -3.6503   25.4806    4.8577 H   0  0  0  0  0  0  0  0  0  0  0  0
   -3.1137   26.0295    2.9748 C   0  0  0  0  0  0  0  0  0  0  0  0
   -6.5846   26.0342   -0.6905 C   0  0  0  0  0  0  0  0  0  0  0  0
   -6.6489   24.6605   -0.1024 C   0  0  0  0  0  0  0  0  0  0  0  0
   -7.4911   23.7110   -0.5396 C   0  0  0  0  0  0  0  0  0  0  0  0
   -7.5180   22.4066    0.0617 C   0  0  0  0  0  0  0  0  0  0  0  0
   -6.6937   22.1232    1.0752 C   0  0  0  0  0  0  0  0  0  0  0  0
   -5.7973   23.0593    1.5749 N   0  0  0  0  0  0  0  0  0  0  0  0
   -4.9649   22.6955    2.6222 C   0  0  0  0  0  0  0  0  0  0  0  0
   -4.9351   21.5914    3.1652 O   0  0  0  0  0  0  0  0  0  0  0  0
   -4.0448   23.7372    3.0966 C   0  0  0  0  0  0  0  0  0  0  0  0
   -4.0665   24.9405    2.5134 C   0  0  0  0  0  0  0  0  0  0  0  0
   -4.8950   25.2544    1.4638 N   0  0  0  0  0  0  0  0  0  0  0  0
   -5.7174   24.3423    1.0379 C   0  0  0  0  0  0  0  0  0  0  0  0
 20 21  1  0  0  0
 21 22  2  0  0  0
 22 23  1  0  0  0
 23 24  2  0  0  0
 24 25  1  0  0  0
 25 26  1  0  0  0
 26 27  2  0  0  0
 26 28  1  0  0  0
 28 29  2  0  0  0
 29 19  1  0  0  0
 19 17  1  0  0  0
 17  1  1  0  0  0
  1  2  1  0  0  0
  1  3  1  0  0  0
  3  4  1  0  0  0
  4  5  2  0  0  0
  5  6  1  0  0  0
  6  9  1  0  0  0
  9 10  1  0  0  0
 10 11  1  0  0  0
 11 12  1  0  0  0
 12 13  2  0  0  0
 13 14  1  0  0  0
 14 15  2  0  0  0
 15 16  1  0  0  0
  6  7  2  0  0  0
  7  8  1  0  0  0
 29 30  1  0  0  0
 30 31  2  0  0  0
 31 21  1  0  0  0
 31 25  1  0  0  0
  8  3  2  0  0  0
 16 11  2  0  0  0
 17 18  1  0  0  0
M  END
> <minimizedAffinity>
-10.10637

$$$$
OCNT-2310494


 24 27  0  0  0  0  0  0  0  0999 V2000
   -1.6235   26.7747    5.7063 N   0  0  0  0  0  0  0  0  0  0  0  0
   -2.9082   26.5246    5.3242 C   0  0  0  0  0  0  0  0  0  0  0  0
   -2.7724   25.8386    4.1365 C   0  0  0  0  0  0  0  0  0  0  0  0
   -1.4343   25.7136    3.8488 N   0  0  0  0  0  0  0  0  0  0  0  0
   -0.7406   26.2935    4.8188 N   0  0  0  0  0  0  0  0  0  0  0  0
   -3.8304   25.3179    3.2864 C   0  0  0  0  0  0  0  0  0  0  0  0
   -4.6815   26.2117    2.6217 C   0  0  0  0  0  0  0  0  0  0  0  0
   -5.7097   25.7457    1.7978 C   0  0  0  0  0  0  0  0  0  0  0  0
   -5.9069   24.3677    1.6212 C   0  0  0  0  0  0  0  0  0  0  0  0
   -6.9172   23.8435    0.8107 C   0  0  0  0  0  0  0  0  0  0  0  0
   -7.1371   22.5223    0.6164 N   0  0  0  0  0  0  0  0  0  0  0  0
   -6.3091   21.6745    1.2592 C   0  0  0  0  0  0  0  0  0  0  0  0
   -5.2745   22.0824    2.0869 C   0  0  0  0  0  0  0  0  0  0  0  0
   -5.0619   23.4536    2.2781 C   0  0  0  0  0  0  0  0  0  0  0  0
   -4.0308   23.9401    3.1051 C   0  0  0  0  0  0  0  0  0  0  0  0
   -1.1674   27.4879    6.8797 C   0  0  0  0  0  0  0  0  0  0  0  0
    0.0184   28.3990    6.5758 C   0  0  0  0  0  0  0  0  0  0  0  0
    1.0143   29.3703    9.1993 O   0  0  0  0  0  0  0  0  0  0  0  0
    0.1140   29.9193    8.5914 C   0  0  0  0  0  0  0  0  0  0  0  0
   -0.7976   30.7964    9.1422 N   0  0  0  0  0  0  0  0  0  0  0  0
   -1.6864   31.3472    8.1667 C   0  0  0  0  0  0  0  0  0  0  0  0
   -1.6265   30.3323    7.0390 C   0  0  0  0  0  0  0  0  0  0  0  0
   -0.1843   29.8147    7.1076 C   0  0  0  0  0  0  0  0  0  0  0  0
   -0.7116   31.0915   10.1078 H   0  0  0  0  0  0  0  0  0  0  0  0
 18 19  2  0  0  0
 19 20  1  0  0  0
 20 21  1  0  0  0
 21 22  1  0  0  0
 22 23  1  0  0  0
 23 17  1  0  0  0
 17 16  1  0  0  0
 16  1  1  0  0  0
  1  2  1  0  0  0
  2  3  2  0  0  0
  3  6  1  0  0  0
  6  7  1  0  0  0
  7  8  2  0  0  0
  8  9  1  0  0  0
  9 10  2  0  0  0
 10 11  1  0  0  0
 11 12  2  0  0  0
 12 13  1  0  0  0
 13 14  2  0  0  0
 14 15  1  0  0  0
  3  4  1  0  0  0
  4  5  2  0  0  0
 23 19  1  0  0  0
  5  1  1  0  0  0
 15  6  2  0  0  0
 14  9  1  0  0  0
 20 24  1  0  0  0
M  END
> <minimizedAffinity>
-8.98736

$$$$
OCNT-2310498


 21 24  0  0  0  0  0  0  0  0999 V2000
   -6.0953   28.4771    4.7503 C   0  0  0  0  0  0  0  0  0  0  0  0
   -6.0733   25.8726    4.6493 C   0  0  0  0  0  0  0  0  0  0  0  0
   -5.9220   24.8865    3.7625 N   0  0  0  0  0  0  0  0  0  0  0  0
   -5.7145   25.5357    2.6023 N   0  0  0  0  0  0  0  0  0  0  0  0
   -5.7426   26.8928    2.7293 C   0  0  0  0  0  0  0  0  0  0  0  0
   -5.9683   27.1571    4.0666 C   0  0  0  0  0  0  0  0  0  0  0  0
   -5.4905   24.7827    1.3783 C   0  0  0  0  0  0  0  0  0  0  0  0
   -6.7128   23.9818    0.9674 C   0  0  0  0  0  0  0  0  0  0  0  0
   -6.4788   22.5669    0.3700 C   0  0  0  0  0  0  0  0  0  0  0  0
   -7.6497   22.8593   -0.5901 C   0  0  0  0  0  0  0  0  0  0  0  0
   -7.3317   24.3571   -0.4057 C   0  0  0  0  0  0  0  0  0  0  0  0
   -5.8945   28.3047    6.1967 N   0  0  0  0  0  0  0  0  0  0  0  0
   -4.5272   28.7153    6.5834 C   0  0  0  0  0  0  0  0  0  0  0  0
   -5.0662   30.1097    6.9849 C   0  0  0  0  0  0  0  0  0  0  0  0
   -6.4597   29.4377    6.9645 C   0  0  0  0  0  0  0  0  0  0  0  0
   -4.5770   30.8327    8.2444 C   0  0  0  0  0  0  0  0  0  0  0  0
   -3.1620   30.4366    8.6817 C   0  0  0  0  0  0  0  0  0  0  0  0
   -2.6989   31.2960    9.8537 C   0  0  0  0  0  0  0  0  0  0  0  0
   -2.7648   32.6818    9.5215 O   0  0  0  0  0  0  0  0  0  0  0  0
   -4.0967   33.1011    9.2318 C   0  0  0  0  0  0  0  0  0  0  0  0
   -4.6453   32.3512    8.0249 C   0  0  0  0  0  0  0  0  0  0  0  0
  2  3  2  0  0  0
  3  4  1  0  0  0
  4  7  1  0  0  0
  7  8  1  0  0  0
  8  9  1  0  0  0
  9 10  1  0  0  0
 10 11  1  0  0  0
  4  5  1  0  0  0
  5  6  2  0  0  0
  6  1  1  0  0  0
  1 12  1  0  0  0
 12 13  1  0  0  0
 13 14  1  0  0  0
 14 16  1  0  0  0
 16 17  1  0  0  0
 17 18  1  0  0  0
 18 19  1  0  0  0
 19 20  1  0  0  0
 20 21  1  0  0  0
 14 15  1  0  0  0
  6  2  1  0  0  0
 15 12  1  0  0  0
 11  8  1  0  0  0
 21 16  1  0  0  0
M  END
> <minimizedAffinity>
-8.11990

$$$$
OCNT-2310500


 23 25  0  0  0  0  0  0  0  0999 V2000
   -2.2098   25.8156    4.1636 C   0  0  0  0  0  0  0  0  0  0  0  0
   -2.1224   26.5406    5.5063 C   0  0  0  0  0  0  0  0  0  0  0  0
   -0.7435   27.1594    5.7559 C   0  0  0  0  0  0  0  0  0  0  0  0
   -2.6816   30.0530    6.7876 C   0  0  0  0  0  0  0  0  0  0  0  0
   -2.2063   29.3858    8.0846 C   0  0  0  0  0  0  0  0  0  0  0  0
   -3.3219   29.4118    8.9899 O   0  0  0  0  0  0  0  0  0  0  0  0
   -1.0449   30.1625    8.7346 C   0  0  0  0  0  0  0  0  0  0  0  0
    0.3222   29.5139    8.5068 C   0  0  0  0  0  0  0  0  0  0  0  0
    0.3903   28.7665    7.1793 C   0  0  0  0  0  0  0  0  0  0  0  0
   -0.5624   27.6530    7.1246 N   0  0  0  0  0  0  0  0  0  0  0  0
   -1.8163   27.9057    7.8539 C   0  0  0  0  0  0  0  0  0  0  0  0
   -3.5442   30.3431    9.1622 H   0  0  0  0  0  0  0  0  0  0  0  0
   -3.3058   26.3183    3.3943 O   0  0  0  0  0  0  0  0  0  0  0  0
   -4.0761   25.4296    2.6965 C   0  0  0  0  0  0  0  0  0  0  0  0
   -3.8580   24.0923    3.0283 C   0  0  0  0  0  0  0  0  0  0  0  0
   -4.5693   23.0735    2.3908 C   0  0  0  0  0  0  0  0  0  0  0  0
   -5.5135   23.3766    1.4005 C   0  0  0  0  0  0  0  0  0  0  0  0
   -6.2392   22.3677    0.7467 C   0  0  0  0  0  0  0  0  0  0  0  0
   -7.1737   22.6868   -0.2399 C   0  0  0  0  0  0  0  0  0  0  0  0
   -7.3931   24.0171   -0.5852 C   0  0  0  0  0  0  0  0  0  0  0  0
   -6.6802   25.0314    0.0570 C   0  0  0  0  0  0  0  0  0  0  0  0
   -5.7374   24.7283    1.0537 C   0  0  0  0  0  0  0  0  0  0  0  0
   -5.0131   25.7414    1.7099 C   0  0  0  0  0  0  0  0  0  0  0  0
  4  5  1  0  0  0
  5  6  1  0  0  0
  5  7  1  0  0  0
  7  8  1  0  0  0
  8  9  1  0  0  0
  9 10  1  0  0  0
 10  3  1  0  0  0
  3  2  1  0  0  0
  2  1  1  0  0  0
  1 13  1  0  0  0
 13 14  1  0  0  0
 14 15  1  0  0  0
 15 16  2  0  0  0
 16 17  1  0  0  0
 17 18  2  0  0  0
 18 19  1  0  0  0
 19 20  2  0  0  0
 20 21  1  0  0  0
 21 22  2  0  0  0
 22 23  1  0  0  0
 10 11  1  0  0  0
 11  5  1  0  0  0
 23 14  2  0  0  0
 22 17  1  0  0  0
  6 12  1  0  0  0
M  END
> <minimizedAffinity>
-9.34520

$$$$
OCNT-2310513


 30 33  0  0  0  0  0  0  0  0999 V2000
   -3.2263   25.9370    3.9543 C   0  0  0  0  0  0  0  0  0  0  0  0
   -2.9852   26.3953    2.8405 O   0  0  0  0  0  0  0  0  0  0  0  0
   -4.5048   25.8015    4.4441 N   0  0  0  0  0  0  0  0  0  0  0  0
   -4.6686   25.3426    5.3311 H   0  0  0  0  0  0  0  0  0  0  0  0
   -1.1605   27.2377    6.0126 N   0  0  0  0  0  0  0  0  0  0  0  0
   -2.1053   26.1539    6.1801 C   0  0  0  0  0  0  0  0  0  0  0  0
   -2.1000   25.4361    4.8478 C   0  0  0  0  0  0  0  0  0  0  0  0
   -0.7148   25.6918    4.2827 C   0  0  0  0  0  0  0  0  0  0  0  0
   -0.2871   26.9802    4.9458 C   0  0  0  0  0  0  0  0  0  0  0  0
    0.6638   27.6358    4.5510 O   0  0  0  0  0  0  0  0  0  0  0  0
   -1.0384   30.6470    8.5754 C   0  0  0  0  0  0  0  0  0  0  0  0
   -0.0194   29.6923    8.6121 C   0  0  0  0  0  0  0  0  0  0  0  0
   -0.0651   28.5628    7.7828 C   0  0  0  0  0  0  0  0  0  0  0  0
   -1.1226   28.3589    6.8894 C   0  0  0  0  0  0  0  0  0  0  0  0
   -2.1413   29.3245    6.8631 C   0  0  0  0  0  0  0  0  0  0  0  0
   -2.1011   30.4531    7.6919 C   0  0  0  0  0  0  0  0  0  0  0  0
   -2.2379   32.0311   10.2855 C   0  0  0  0  0  0  0  0  0  0  0  0
   -0.9764   31.8711    9.4513 C   0  0  0  0  0  0  0  0  0  0  0  0
   -5.6712   26.0828    3.6245 C   0  0  0  0  0  0  0  0  0  0  0  0
   -6.0129   24.9681    2.6633 C   0  0  0  0  0  0  0  0  0  0  0  0
   -5.8109   25.1684    1.2802 C   0  0  0  0  0  0  0  0  0  0  0  0
   -6.2136   24.2212    0.3458 C   0  0  0  0  0  0  0  0  0  0  0  0
   -6.8150   23.0750    0.8116 C   0  0  0  0  0  0  0  0  0  0  0  0
   -6.9873   22.8132    2.1213 N   0  0  0  0  0  0  0  0  0  0  0  0
   -6.5500   23.7258    3.0409 C   0  0  0  0  0  0  0  0  0  0  0  0
   -6.6433   23.2712    4.3942 N   0  0  0  0  0  0  0  0  0  0  0  0
   -5.7733   22.5133    5.1479 C   0  0  0  0  0  0  0  0  0  0  0  0
   -6.3867   22.3255    6.3655 C   0  0  0  0  0  0  0  0  0  0  0  0
   -7.6179   22.9124    6.3884 N   0  0  0  0  0  0  0  0  0  0  0  0
   -7.7569   23.4454    5.1946 C   0  0  0  0  0  0  0  0  0  0  0  0
 17 18  1  0  0  0
 18 11  1  0  0  0
 11 12  1  0  0  0
 12 13  2  0  0  0
 13 14  1  0  0  0
 14  5  1  0  0  0
  5  6  1  0  0  0
  6  7  1  0  0  0
  7  1  1  0  0  0
  1  2  2  0  0  0
  1  3  1  0  0  0
  3 19  1  0  0  0
 19 20  1  0  0  0
 20 21  1  0  0  0
 21 22  2  0  0  0
 22 23  1  0  0  0
 23 24  2  0  0  0
 24 25  1  0  0  0
 25 26  1  0  0  0
 26 27  1  0  0  0
 27 28  2  0  0  0
 28 29  1  0  0  0
 29 30  2  0  0  0
  7  8  1  0  0  0
  8  9  1  0  0  0
  9 10  2  0  0  0
 14 15  2  0  0  0
 15 16  1  0  0  0
 16 11  2  0  0  0
  9  5  1  0  0  0
 25 20  2  0  0  0
 30 26  1  0  0  0
  3  4  1  0  0  0
M  END
> <minimizedAffinity>
-9.48769

$$$$
OCNT-2310514


 31 33  0  0  0  0  0  0  0  0999 V2000
   -1.9646   25.6345    4.7444 O   0  0  0  0  0  0  0  0  0  0  0  0
   -2.7480   26.0770    5.5736 C   0  0  0  0  0  0  0  0  0  0  0  0
   -2.3985   26.8893    6.6192 N   0  0  0  0  0  0  0  0  0  0  0  0
   -4.0976   25.8262    5.5776 N   0  0  0  0  0  0  0  0  0  0  0  0
   -3.1428   27.4762    6.9634 H   0  0  0  0  0  0  0  0  0  0  0  0
   -4.4959   25.7539    6.5092 H   0  0  0  0  0  0  0  0  0  0  0  0
   -1.0509   27.3894    6.7577 C   0  0  0  0  0  0  0  0  0  0  0  0
   -1.0118   28.6207    7.6293 C   0  0  0  0  0  0  0  0  0  0  0  0
    0.1785   28.9927    8.2646 C   0  0  0  0  0  0  0  0  0  0  0  0
    0.2269   30.1392    9.0533 C   0  0  0  0  0  0  0  0  0  0  0  0
   -0.9113   30.9330    9.2140 C   0  0  0  0  0  0  0  0  0  0  0  0
   -2.1133   30.5857    8.5802 C   0  0  0  0  0  0  0  0  0  0  0  0
   -2.1527   29.4274    7.7857 C   0  0  0  0  0  0  0  0  0  0  0  0
   -3.2764   31.3962    8.7374 N   0  0  0  0  0  0  0  0  0  0  0  0
   -4.5791   31.0673    8.4215 C   0  0  0  0  0  0  0  0  0  0  0  0
   -5.3441   32.1622    8.7471 C   0  0  0  0  0  0  0  0  0  0  0  0
   -4.5676   33.1612    9.2537 N   0  0  0  0  0  0  0  0  0  0  0  0
   -3.3432   32.6806    9.2382 C   0  0  0  0  0  0  0  0  0  0  0  0
   -4.6703   24.8810    4.6380 C   0  0  0  0  0  0  0  0  0  0  0  0
   -5.4855   25.5881    3.5372 C   0  0  0  0  0  0  0  0  0  0  0  0
   -5.5987   27.0959    3.8196 C   0  0  0  0  0  0  0  0  0  0  0  0
   -4.6430   27.8324    3.0559 O   0  0  0  0  0  0  0  0  0  0  0  0
   -4.6833   28.7507    3.3798 H   0  0  0  0  0  0  0  0  0  0  0  0
   -4.8335   25.3181    2.1659 C   0  0  0  0  0  0  0  0  0  0  0  0
   -5.7138   24.5378    1.2132 C   0  0  0  0  0  0  0  0  0  0  0  0
   -6.3996   25.2479    0.2102 C   0  0  0  0  0  0  0  0  0  0  0  0
   -7.2246   24.5885   -0.7024 C   0  0  0  0  0  0  0  0  0  0  0  0
   -7.3790   23.2077   -0.6298 C   0  0  0  0  0  0  0  0  0  0  0  0
   -6.7061   22.4865    0.3554 C   0  0  0  0  0  0  0  0  0  0  0  0
   -5.8778   23.1441    1.2716 C   0  0  0  0  0  0  0  0  0  0  0  0
   -5.0675   22.1703    2.4468 Cl  0  0  0  0  0  0  0  0  0  0  0  0
  1  2  2  0  0  0
  2  3  1  0  0  0
  3  7  1  0  0  0
  7  8  1  0  0  0
  8  9  2  0  0  0
  9 10  1  0  0  0
 10 11  2  0  0  0
 11 12  1  0  0  0
 12 14  1  0  0  0
 14 15  1  0  0  0
 15 16  2  0  0  0
 16 17  1  0  0  0
 17 18  2  0  0  0
 12 13  2  0  0  0
  2  4  1  0  0  0
  4 19  1  0  0  0
 19 20  1  0  0  0
 20 21  1  0  0  0
 21 22  1  0  0  0
 20 24  1  0  0  0
 24 25  1  0  0  0
 25 26  2  0  0  0
 26 27  1  0  0  0
 27 28  2  0  0  0
 28 29  1  0  0  0
 29 30  2  0  0  0
 30 31  1  0  0  0
 13  8  1  0  0  0
 30 25  1  0  0  0
 18 14  1  0  0  0
  3  5  1  0  0  0
  4  6  1  0  0  0
 22 23  1  0  0  0
M  END
> <minimizedAffinity>
-10.01798

$$$$
OCNT-2310518


 31 33  0  0  0  0  0  0  0  0999 V2000
   -5.8151   26.7351    3.2780 C   0  0  0  0  0  0  0  0  0  0  0  0
   -5.8472   28.1000    2.9576 C   0  0  0  0  0  0  0  0  0  0  0  0
   -5.9159   29.0549    3.9755 C   0  0  0  0  0  0  0  0  0  0  0  0
   -5.9670   28.6398    5.3104 C   0  0  0  0  0  0  0  0  0  0  0  0
   -5.9337   27.2817    5.6395 C   0  0  0  0  0  0  0  0  0  0  0  0
   -5.8698   26.3305    4.6194 C   0  0  0  0  0  0  0  0  0  0  0  0
   -5.2529   24.4591    2.6202 N   0  0  0  0  0  0  0  0  0  0  0  0
   -5.7506   25.6836    2.2275 C   0  0  0  0  0  0  0  0  0  0  0  0
   -6.1559   25.9234    1.0964 O   0  0  0  0  0  0  0  0  0  0  0  0
   -5.0676   24.2865    3.5987 H   0  0  0  0  0  0  0  0  0  0  0  0
   -5.1760   23.3303    1.7062 C   0  0  0  0  0  0  0  0  0  0  0  0
   -5.8502   20.8597    1.5441 C   0  0  0  0  0  0  0  0  0  0  0  0
   -6.3385   22.2968    1.8376 C   0  0  0  0  0  0  0  0  0  0  0  0
   -7.4216   22.6238    0.7806 C   0  0  0  0  0  0  0  0  0  0  0  0
   -6.8734   22.3664    3.2839 C   0  0  0  0  0  0  0  0  0  0  0  0
   -6.1362   21.9327    4.3940 C   0  0  0  0  0  0  0  0  0  0  0  0
   -6.6965   22.0195    5.6631 C   0  0  0  0  0  0  0  0  0  0  0  0
   -7.9309   22.4982    5.9126 N   0  0  0  0  0  0  0  0  0  0  0  0
   -8.6369   22.9120    4.8429 C   0  0  0  0  0  0  0  0  0  0  0  0
   -8.1626   22.8651    3.5390 C   0  0  0  0  0  0  0  0  0  0  0  0
   -6.0353   29.8581    6.6019 S   0  0  0  0  0  0  0  0  0  0  0  0
   -7.3697   30.4137    6.6517 O   0  0  0  0  0  0  0  0  0  0  0  0
   -5.4341   29.2649    7.7790 O   0  0  0  0  0  0  0  0  0  0  0  0
   -4.9442   31.0313    6.0628 N   0  0  0  0  0  0  0  0  0  0  0  0
   -4.6412   30.8285    5.1107 H   0  0  0  0  0  0  0  0  0  0  0  0
   -3.9512   31.4832    6.9741 C   0  0  0  0  0  0  0  0  0  0  0  0
   -2.6320   31.0507    6.8432 C   0  0  0  0  0  0  0  0  0  0  0  0
   -1.6709   31.4715    7.7633 C   0  0  0  0  0  0  0  0  0  0  0  0
   -2.0313   32.3183    8.8119 C   0  0  0  0  0  0  0  0  0  0  0  0
   -3.3532   32.7438    8.9437 C   0  0  0  0  0  0  0  0  0  0  0  0
   -4.3159   32.3236    8.0251 C   0  0  0  0  0  0  0  0  0  0  0  0
 12 13  1  0  0  0
 13 14  1  0  0  0
 13 11  1  0  0  0
 11  7  1  0  0  0
  7  8  1  0  0  0
  8  9  2  0  0  0
  8  1  1  0  0  0
  1  2  1  0  0  0
  2  3  2  0  0  0
  3  4  1  0  0  0
  4 21  1  0  0  0
 21 22  2  0  0  0
 21 23  2  0  0  0
 21 24  1  0  0  0
 24 26  1  0  0  0
 26 27  2  0  0  0
 27 28  1  0  0  0
 28 29  2  0  0  0
 29 30  1  0  0  0
 30 31  2  0  0  0
  4  5  2  0  0  0
  5  6  1  0  0  0
 13 15  1  0  0  0
 15 16  2  0  0  0
 16 17  1  0  0  0
 17 18  2  0  0  0
 18 19  1  0  0  0
 19 20  2  0  0  0
  6  1  2  0  0  0
 20 15  1  0  0  0
 31 26  1  0  0  0
  7 10  1  0  0  0
 24 25  1  0  0  0
M  END
> <minimizedAffinity>
-9.81186

$$$$
OCNT-2310539


 24 26  0  0  0  0  0  0  0  0999 V2000
   -5.0143   25.0639    1.0116 C   0  0  0  0  0  0  0  0  0  0  0  0
   -4.7423   25.8024    2.2921 C   0  0  0  0  0  0  0  0  0  0  0  0
   -5.7542   26.6162    2.8629 C   0  0  0  0  0  0  0  0  0  0  0  0
   -5.5478   27.2925    4.0707 C   0  0  0  0  0  0  0  0  0  0  0  0
   -4.3205   27.1286    4.6810 C   0  0  0  0  0  0  0  0  0  0  0  0
   -3.8074   27.6617    5.9398 C   0  0  0  0  0  0  0  0  0  0  0  0
   -4.4527   28.3250    6.7284 O   0  0  0  0  0  0  0  0  0  0  0  0
   -2.5325   27.1931    6.0755 N   0  0  0  0  0  0  0  0  0  0  0  0
   -2.1911   26.3528    5.0528 C   0  0  0  0  0  0  0  0  0  0  0  0
   -1.1688   25.7175    4.8847 O   0  0  0  0  0  0  0  0  0  0  0  0
   -3.3337   26.3251    4.1403 C   0  0  0  0  0  0  0  0  0  0  0  0
   -3.5121   25.6447    2.9508 C   0  0  0  0  0  0  0  0  0  0  0  0
   -1.6762   27.4691    7.2140 C   0  0  0  0  0  0  0  0  0  0  0  0
   -1.3858   28.9654    7.3725 C   0  0  0  0  0  0  0  0  0  0  0  0
   -0.6382   29.5551    6.5960 O   0  0  0  0  0  0  0  0  0  0  0  0
   -2.1306   29.6019    8.3502 N   0  0  0  0  0  0  0  0  0  0  0  0
   -3.0008   29.1289    8.5823 H   0  0  0  0  0  0  0  0  0  0  0  0
   -2.1198   31.0616    8.5959 C   0  0  0  0  0  0  0  0  0  0  0  0
   -0.7709   31.4882    9.2083 C   0  0  0  0  0  0  0  0  0  0  0  0
   -2.3817   31.8647    7.2919 C   0  0  0  0  0  0  0  0  0  0  0  0
   -3.8199   31.8418    6.8464 C   0  0  0  0  0  0  0  0  0  0  0  0
   -4.8330   31.5050    7.6559 C   0  0  0  0  0  0  0  0  0  0  0  0
   -4.6499   31.1391    9.0982 C   0  0  0  0  0  0  0  0  0  0  0  0
   -3.2320   31.3966    9.6246 C   0  0  0  0  0  0  0  0  0  0  0  0
  1  2  1  0  0  0
  2  3  1  0  0  0
  3  4  2  0  0  0
  4  5  1  0  0  0
  5  6  1  0  0  0
  6  7  2  0  0  0
  6  8  1  0  0  0
  8 13  1  0  0  0
 13 14  1  0  0  0
 14 15  2  0  0  0
 14 16  1  0  0  0
 16 18  1  0  0  0
 18 19  1  0  0  0
 18 20  1  0  0  0
 20 21  1  0  0  0
 21 22  2  0  0  0
 22 23  1  0  0  0
 23 24  1  0  0  0
  8  9  1  0  0  0
  9 10  2  0  0  0
  9 11  1  0  0  0
 11 12  1  0  0  0
 12  2  2  0  0  0
 11  5  2  0  0  0
 24 18  1  0  0  0
 16 17  1  0  0  0
M  END
> <minimizedAffinity>
-9.08671

$$$$
OCNT-2310555


 29 32  0  0  0  0  0  0  0  0999 V2000
   -5.8605   28.6326    6.1007 C   0  0  0  0  0  0  0  0  0  0  0  0
   -6.9732   28.1115    6.1946 O   0  0  0  0  0  0  0  0  0  0  0  0
   -5.2638   28.8670    4.8938 N   0  0  0  0  0  0  0  0  0  0  0  0
   -4.3267   29.2654    4.8992 H   0  0  0  0  0  0  0  0  0  0  0  0
   -5.0993   29.0169    7.3519 C   0  0  0  0  0  0  0  0  0  0  0  0
   -1.0079   26.7724    6.1086 C   0  0  0  0  0  0  0  0  0  0  0  0
   -1.6054   27.8809    6.8325 N   0  0  0  0  0  0  0  0  0  0  0  0
   -2.9728   27.9630    6.7886 N   0  0  0  0  0  0  0  0  0  0  0  0
   -3.5835   28.9218    7.4184 C   0  0  0  0  0  0  0  0  0  0  0  0
   -2.8539   29.9470    8.2054 C   0  0  0  0  0  0  0  0  0  0  0  0
   -3.4924   31.0073    8.8631 C   0  0  0  0  0  0  0  0  0  0  0  0
   -2.7436   31.9273    9.6029 C   0  0  0  0  0  0  0  0  0  0  0  0
   -1.3600   31.7959    9.6897 C   0  0  0  0  0  0  0  0  0  0  0  0
   -0.7207   30.7471    9.0306 C   0  0  0  0  0  0  0  0  0  0  0  0
   -1.4698   29.8256    8.2868 C   0  0  0  0  0  0  0  0  0  0  0  0
   -0.7910   28.7300    7.5730 C   0  0  0  0  0  0  0  0  0  0  0  0
    0.4294   28.6214    7.6501 O   0  0  0  0  0  0  0  0  0  0  0  0
   -5.8334   28.4464    3.6392 C   0  0  0  0  0  0  0  0  0  0  0  0
   -5.2111   27.1559    3.1767 C   0  0  0  0  0  0  0  0  0  0  0  0
   -3.9180   26.8139    3.5784 C   0  0  0  0  0  0  0  0  0  0  0  0
   -3.3705   25.6292    3.1177 C   0  0  0  0  0  0  0  0  0  0  0  0
   -4.0133   24.7808    2.2881 N   0  0  0  0  0  0  0  0  0  0  0  0
   -5.2659   25.1242    1.8848 C   0  0  0  0  0  0  0  0  0  0  0  0
   -5.8936   26.2982    2.3028 C   0  0  0  0  0  0  0  0  0  0  0  0
   -5.9299   24.2268    1.0026 N   0  0  0  0  0  0  0  0  0  0  0  0
   -6.8008   24.5047   -0.0292 C   0  0  0  0  0  0  0  0  0  0  0  0
   -7.1568   23.2838   -0.5575 C   0  0  0  0  0  0  0  0  0  0  0  0
   -6.5367   22.2638    0.1061 N   0  0  0  0  0  0  0  0  0  0  0  0
   -5.8100   22.8539    1.0313 C   0  0  0  0  0  0  0  0  0  0  0  0
  6  7  1  0  0  0
  7  8  1  0  0  0
  8  9  2  0  0  0
  9  5  1  0  0  0
  5  1  1  0  0  0
  1  2  2  0  0  0
  1  3  1  0  0  0
  3 18  1  0  0  0
 18 19  1  0  0  0
 19 20  2  0  0  0
 20 21  1  0  0  0
 21 22  2  0  0  0
 22 23  1  0  0  0
 23 25  1  0  0  0
 25 26  1  0  0  0
 26 27  2  0  0  0
 27 28  1  0  0  0
 28 29  2  0  0  0
 23 24  2  0  0  0
  9 10  1  0  0  0
 10 11  2  0  0  0
 11 12  1  0  0  0
 12 13  2  0  0  0
 13 14  1  0  0  0
 14 15  2  0  0  0
 15 16  1  0  0  0
 16 17  2  0  0  0
 16  7  1  0  0  0
 24 19  1  0  0  0
 15 10  1  0  0  0
 29 25  1  0  0  0
  3  4  1  0  0  0
M  END
> <minimizedAffinity>
-10.27208

$$$$
OCNT-2310560


 25 27  0  0  0  0  0  0  0  0999 V2000
   -6.2133   30.4256    7.0750 C   0  0  0  0  0  0  0  0  0  0  0  0
   -7.4124   30.0802    6.4935 C   0  0  0  0  0  0  0  0  0  0  0  0
   -7.1804   29.1025    5.5761 O   0  0  0  0  0  0  0  0  0  0  0  0
   -5.8264   28.9002    5.6340 C   0  0  0  0  0  0  0  0  0  0  0  0
   -5.2029   29.6807    6.4944 N   0  0  0  0  0  0  0  0  0  0  0  0
   -5.2712   27.8755    4.7550 C   0  0  0  0  0  0  0  0  0  0  0  0
   -5.9550   27.5346    3.5727 C   0  0  0  0  0  0  0  0  0  0  0  0
   -5.4516   26.5592    2.7066 C   0  0  0  0  0  0  0  0  0  0  0  0
   -4.2592   25.9193    3.0198 C   0  0  0  0  0  0  0  0  0  0  0  0
   -3.7766   24.9841    2.1905 F   0  0  0  0  0  0  0  0  0  0  0  0
   -3.5732   26.2461    4.1828 C   0  0  0  0  0  0  0  0  0  0  0  0
   -2.4231   25.6265    4.4820 F   0  0  0  0  0  0  0  0  0  0  0  0
   -4.0685   27.2168    5.0501 C   0  0  0  0  0  0  0  0  0  0  0  0
   -5.9403   31.4566    8.1234 C   0  0  0  0  0  0  0  0  0  0  0  0
   -3.5419   30.9472    9.7944 C   0  0  0  0  0  0  0  0  0  0  0  0
   -3.6610   32.1938    8.8972 C   0  0  0  0  0  0  0  0  0  0  0  0
   -4.0943   33.3796    9.7926 C   0  0  0  0  0  0  0  0  0  0  0  0
   -4.8484   34.3365    8.8801 C   0  0  0  0  0  0  0  0  0  0  0  0
   -4.9804   33.6073    7.5552 C   0  0  0  0  0  0  0  0  0  0  0  0
   -4.6966   32.1892    7.8306 N   0  0  0  0  0  0  0  0  0  0  0  0
   -2.2627   32.5191    8.2693 C   0  0  0  0  0  0  0  0  0  0  0  0
   -1.3155   31.3401    7.9802 C   0  0  0  0  0  0  0  0  0  0  0  0
   -1.5003   30.6354    6.6459 C   0  0  0  0  0  0  0  0  0  0  0  0
   -2.6142   31.1697    5.9416 O   0  0  0  0  0  0  0  0  0  0  0  0
   -3.3999   31.0227    6.4950 H   0  0  0  0  0  0  0  0  0  0  0  0
 15 16  1  0  0  0
 16 21  1  0  0  0
 21 22  1  0  0  0
 22 23  1  0  0  0
 23 24  1  0  0  0
 16 17  1  0  0  0
 17 18  1  0  0  0
 18 19  1  0  0  0
 19 20  1  0  0  0
 20 14  1  0  0  0
 14  1  1  0  0  0
  1  2  2  0  0  0
  2  3  1  0  0  0
  3  4  1  0  0  0
  4  6  1  0  0  0
  6  7  1  0  0  0
  7  8  2  0  0  0
  8  9  1  0  0  0
  9 10  1  0  0  0
  9 11  2  0  0  0
 11 12  1  0  0  0
 11 13  1  0  0  0
  4  5  2  0  0  0
 20 16  1  0  0  0
  5  1  1  0  0  0
 13  6  2  0  0  0
 24 25  1  0  0  0
M  END
> <minimizedAffinity>
-8.12002

$$$$
OCNT-2310562


 30 33  0  0  0  0  0  0  0  0999 V2000
   -5.9674   30.1899    9.0349 C   0  0  0  0  0  0  0  0  0  0  0  0
   -5.4975   31.6612    9.0490 C   0  0  0  0  0  0  0  0  0  0  0  0
   -4.4217   31.9412    8.0013 C   0  0  0  0  0  0  0  0  0  0  0  0
   -3.2891   31.0340    8.1279 N   0  0  0  0  0  0  0  0  0  0  0  0
   -2.0768   31.4873    7.5869 C   0  0  0  0  0  0  0  0  0  0  0  0
   -1.9483   32.5763    7.0309 O   0  0  0  0  0  0  0  0  0  0  0  0
   -3.6308   29.6101    8.1371 C   0  0  0  0  0  0  0  0  0  0  0  0
   -4.7014   29.2960    9.1809 C   0  0  0  0  0  0  0  0  0  0  0  0
   -0.8723   30.6352    7.7155 C   0  0  0  0  0  0  0  0  0  0  0  0
   -0.3528   29.9624    6.6033 C   0  0  0  0  0  0  0  0  0  0  0  0
    0.7651   29.1409    6.7522 C   0  0  0  0  0  0  0  0  0  0  0  0
    1.3505   28.9809    8.0096 C   0  0  0  0  0  0  0  0  0  0  0  0
    0.8158   29.6326    9.1227 C   0  0  0  0  0  0  0  0  0  0  0  0
   -0.3021   30.4549    8.9793 C   0  0  0  0  0  0  0  0  0  0  0  0
   -6.6883   29.8077    7.7201 C   0  0  0  0  0  0  0  0  0  0  0  0
   -7.3279   30.6287    7.0651 O   0  0  0  0  0  0  0  0  0  0  0  0
   -6.5341   28.5074    7.3015 N   0  0  0  0  0  0  0  0  0  0  0  0
   -5.8528   27.9152    7.7520 H   0  0  0  0  0  0  0  0  0  0  0  0
   -7.0309   28.0547    6.0200 C   0  0  0  0  0  0  0  0  0  0  0  0
   -5.9005   27.5116    5.1803 C   0  0  0  0  0  0  0  0  0  0  0  0
   -6.0814   27.3310    3.7979 C   0  0  0  0  0  0  0  0  0  0  0  0
   -5.0501   26.8621    2.9764 C   0  0  0  0  0  0  0  0  0  0  0  0
   -3.8364   26.5903    3.5998 C   0  0  0  0  0  0  0  0  0  0  0  0
   -2.7138   26.1306    2.9805 O   0  0  0  0  0  0  0  0  0  0  0  0
   -1.7594   25.9995    3.9384 C   0  0  0  0  0  0  0  0  0  0  0  0
   -2.2523   26.3709    5.1684 C   0  0  0  0  0  0  0  0  0  0  0  0
   -3.6028   26.7568    4.9595 C   0  0  0  0  0  0  0  0  0  0  0  0
   -4.6513   27.2297    5.7699 C   0  0  0  0  0  0  0  0  0  0  0  0
   -6.3189   28.9982   11.3530 C   0  0  0  0  0  0  0  0  0  0  0  0
   -6.8955   29.8653   10.2408 C   0  0  0  0  0  0  0  0  0  0  0  0
 29 30  1  0  0  0
 30  1  1  0  0  0
  1 15  1  0  0  0
 15 16  2  0  0  0
 15 17  1  0  0  0
 17 19  1  0  0  0
 19 20  1  0  0  0
 20 21  2  0  0  0
 21 22  1  0  0  0
 22 23  2  0  0  0
 23 24  1  0  0  0
 24 25  1  0  0  0
 25 26  2  0  0  0
 26 27  1  0  0  0
 27 28  2  0  0  0
  1  2  1  0  0  0
  2  3  1  0  0  0
  3  4  1  0  0  0
  4  5  1  0  0  0
  5  6  2  0  0  0
  5  9  1  0  0  0
  9 10  2  0  0  0
 10 11  1  0  0  0
 11 12  2  0  0  0
 12 13  1  0  0  0
 13 14  2  0  0  0
  4  7  1  0  0  0
  7  8  1  0  0  0
  8  1  1  0  0  0
 28 20  1  0  0  0
 14  9  1  0  0  0
 27 23  1  0  0  0
 17 18  1  0  0  0
M  END
> <minimizedAffinity>
-9.92556

$$$$
OCNT-2310580


 29 32  0  0  0  0  0  0  0  0999 V2000
   -4.2600   28.3247    6.0402 C   0  0  0  0  0  0  0  0  0  0  0  0
   -5.5290   25.5941    2.8754 C   0  0  0  0  0  0  0  0  0  0  0  0
   -4.7247   25.1667    3.9430 C   0  0  0  0  0  0  0  0  0  0  0  0
   -4.3213   26.0362    4.9661 C   0  0  0  0  0  0  0  0  0  0  0  0
   -4.7072   27.3782    4.9532 C   0  0  0  0  0  0  0  0  0  0  0  0
   -5.5015   27.8279    3.8958 C   0  0  0  0  0  0  0  0  0  0  0  0
   -5.9006   26.9487    2.8802 C   0  0  0  0  0  0  0  0  0  0  0  0
   -8.2261   22.4948   -0.6141 O   0  0  0  0  0  0  0  0  0  0  0  0
   -6.9459   23.0580   -0.3238 C   0  0  0  0  0  0  0  0  0  0  0  0
   -7.0552   24.5794   -0.3295 C   0  0  0  0  0  0  0  0  0  0  0  0
   -5.9264   25.2209    0.4678 C   0  0  0  0  0  0  0  0  0  0  0  0
   -5.9273   24.7384    1.8538 N   0  0  0  0  0  0  0  0  0  0  0  0
   -6.6385   23.4890    2.1483 C   0  0  0  0  0  0  0  0  0  0  0  0
   -6.4447   22.4966    1.0049 C   0  0  0  0  0  0  0  0  0  0  0  0
   -8.5100   22.8380   -1.4791 H   0  0  0  0  0  0  0  0  0  0  0  0
   -2.8090   28.3834    6.2026 N   0  0  0  0  0  0  0  0  0  0  0  0
   -2.3620   27.8401    5.4674 H   0  0  0  0  0  0  0  0  0  0  0  0
   -2.3707   27.8792    7.4993 C   0  0  0  0  0  0  0  0  0  0  0  0
   -1.5709   28.9477    8.1600 C   0  0  0  0  0  0  0  0  0  0  0  0
   -0.1998   28.9272    8.3454 C   0  0  0  0  0  0  0  0  0  0  0  0
    0.1205   30.0753    8.9965 N   0  0  0  0  0  0  0  0  0  0  0  0
   -0.9347   30.8501    9.2651 N   0  0  0  0  0  0  0  0  0  0  0  0
   -1.9802   30.1838    8.7459 C   0  0  0  0  0  0  0  0  0  0  0  0
    1.0367   30.3936    9.2939 H   0  0  0  0  0  0  0  0  0  0  0  0
   -3.4290   30.8152    8.8478 C   0  0  0  0  0  0  0  0  0  0  0  0
   -3.7074   32.1022    8.4275 C   0  0  0  0  0  0  0  0  0  0  0  0
   -5.0758   32.4555    8.6129 C   0  0  0  0  0  0  0  0  0  0  0  0
   -5.7979   31.4235    9.1677 C   0  0  0  0  0  0  0  0  0  0  0  0
   -4.8243   30.0484    9.4579 S   0  0  0  0  0  0  0  0  0  0  0  0
  8  9  1  0  0  0
  9 10  1  0  0  0
 10 11  1  0  0  0
 11 12  1  0  0  0
 12  2  1  0  0  0
  2  3  1  0  0  0
  3  4  2  0  0  0
  4  5  1  0  0  0
  5  1  1  0  0  0
  1 16  1  0  0  0
 16 18  1  0  0  0
 18 19  1  0  0  0
 19 20  2  0  0  0
 20 21  1  0  0  0
 21 22  1  0  0  0
 22 23  2  0  0  0
 23 25  1  0  0  0
 25 26  2  0  0  0
 26 27  1  0  0  0
 27 28  2  0  0  0
 28 29  1  0  0  0
  5  6  2  0  0  0
  6  7  1  0  0  0
 12 13  1  0  0  0
 13 14  1  0  0  0
 14  9  1  0  0  0
  7  2  2  0  0  0
 23 19  1  0  0  0
 29 25  1  0  0  0
  8 15  1  0  0  0
 16 17  1  0  0  0
 21 24  1  0  0  0
M  END
> <minimizedAffinity>
-9.39350

$$$$
OCNT-2310581


 24 26  0  0  0  0  0  0  0  0999 V2000
   -6.8852   30.0740    6.4427 C   0  0  0  0  0  0  0  0  0  0  0  0
   -6.4969   29.0508    5.4075 C   0  0  0  0  0  0  0  0  0  0  0  0
   -6.1885   29.4310    4.0976 C   0  0  0  0  0  0  0  0  0  0  0  0
   -5.8038   28.4765    3.1461 C   0  0  0  0  0  0  0  0  0  0  0  0
   -5.7118   27.1162    3.4880 C   0  0  0  0  0  0  0  0  0  0  0  0
   -6.0128   26.7474    4.8045 C   0  0  0  0  0  0  0  0  0  0  0  0
   -5.9475   25.4769    5.2236 F   0  0  0  0  0  0  0  0  0  0  0  0
   -6.3967   27.6987    5.7517 C   0  0  0  0  0  0  0  0  0  0  0  0
   -5.3188   26.1541    2.5109 N   0  0  0  0  0  0  0  0  0  0  0  0
   -4.1068   25.5088    2.3816 C   0  0  0  0  0  0  0  0  0  0  0  0
   -4.2173   24.6801    1.2907 C   0  0  0  0  0  0  0  0  0  0  0  0
   -5.4547   24.7817    0.7311 N   0  0  0  0  0  0  0  0  0  0  0  0
   -6.0892   25.6621    1.4736 C   0  0  0  0  0  0  0  0  0  0  0  0
   -5.3390   30.4620    8.3321 C   0  0  0  0  0  0  0  0  0  0  0  0
   -6.0315   29.8217    9.1192 O   0  0  0  0  0  0  0  0  0  0  0  0
   -5.7174   30.6811    7.0253 N   0  0  0  0  0  0  0  0  0  0  0  0
   -5.0351   31.1311    6.4267 H   0  0  0  0  0  0  0  0  0  0  0  0
   -0.5502   30.3745    8.9515 C   0  0  0  0  0  0  0  0  0  0  0  0
   -1.8716   31.0316    8.9641 C   0  0  0  0  0  0  0  0  0  0  0  0
   -2.2950   32.3027    9.2783 C   0  0  0  0  0  0  0  0  0  0  0  0
   -3.7061   32.3227    9.0937 C   0  0  0  0  0  0  0  0  0  0  0  0
   -4.6196   33.4724    9.3086 C   0  0  0  0  0  0  0  0  0  0  0  0
   -4.0552   31.0469    8.6727 C   0  0  0  0  0  0  0  0  0  0  0  0
   -2.9313   30.2627    8.5959 O   0  0  0  0  0  0  0  0  0  0  0  0
 18 19  1  0  0  0
 19 20  2  0  0  0
 20 21  1  0  0  0
 21 22  1  0  0  0
 21 23  2  0  0  0
 23 14  1  0  0  0
 14 15  2  0  0  0
 14 16  1  0  0  0
 16  1  1  0  0  0
  1  2  1  0  0  0
  2  3  1  0  0  0
  3  4  2  0  0  0
  4  5  1  0  0  0
  5  9  1  0  0  0
  9 10  1  0  0  0
 10 11  2  0  0  0
 11 12  1  0  0  0
 12 13  2  0  0  0
  5  6  2  0  0  0
  6  7  1  0  0  0
  6  8  1  0  0  0
 23 24  1  0  0  0
 24 19  1  0  0  0
  8  2  2  0  0  0
 13  9  1  0  0  0
 16 17  1  0  0  0
M  END
> <minimizedAffinity>
-9.22149

$$$$
OCNT-2310583


 24 25  0  0  0  0  0  0  0  0999 V2000
   -4.1534   31.0461    8.4560 C   0  0  0  0  0  0  0  0  0  0  0  0
   -5.4267   31.8466    8.8080 C   0  0  0  0  0  0  0  0  0  0  0  0
   -6.2620   31.2210    9.7905 O   0  0  0  0  0  0  0  0  0  0  0  0
   -6.2765   29.7920    9.7193 C   0  0  0  0  0  0  0  0  0  0  0  0
   -5.8569   29.2259    8.3604 C   0  0  0  0  0  0  0  0  0  0  0  0
   -4.5193   29.6924    7.9753 N   0  0  0  0  0  0  0  0  0  0  0  0
   -3.7128   29.1122    7.0040 C   0  0  0  0  0  0  0  0  0  0  0  0
   -2.6918   29.6583    6.5953 O   0  0  0  0  0  0  0  0  0  0  0  0
   -4.1358   27.8866    6.5509 N   0  0  0  0  0  0  0  0  0  0  0  0
   -4.5473   27.2827    7.2444 H   0  0  0  0  0  0  0  0  0  0  0  0
   -3.5990   27.2430    5.4454 C   0  0  0  0  0  0  0  0  0  0  0  0
   -2.3451   26.6743    5.4847 C   0  0  0  0  0  0  0  0  0  0  0  0
   -2.1212   26.1575    4.2473 N   0  0  0  0  0  0  0  0  0  0  0  0
   -0.9277   25.4901    3.7856 C   0  0  0  0  0  0  0  0  0  0  0  0
   -3.1577   26.2985    3.4122 N   0  0  0  0  0  0  0  0  0  0  0  0
   -4.0988   26.9534    4.1349 C   0  0  0  0  0  0  0  0  0  0  0  0
   -5.4704   27.2080    3.5557 C   0  0  0  0  0  0  0  0  0  0  0  0
   -6.4616   26.7732    4.3925 F   0  0  0  0  0  0  0  0  0  0  0  0
   -5.7295   28.5331    3.3686 F   0  0  0  0  0  0  0  0  0  0  0  0
   -5.6825   26.5706    2.3743 F   0  0  0  0  0  0  0  0  0  0  0  0
   -3.1729   30.9361    9.6483 C   0  0  0  0  0  0  0  0  0  0  0  0
   -0.6932   30.6384    9.0885 C   0  0  0  0  0  0  0  0  0  0  0  0
   -1.8139   31.6267    9.4087 C   0  0  0  0  0  0  0  0  0  0  0  0
   -1.9435   32.6433    8.2708 C   0  0  0  0  0  0  0  0  0  0  0  0
 22 23  1  0  0  0
 23 24  1  0  0  0
 23 21  1  0  0  0
 21  1  1  0  0  0
  1  2  1  0  0  0
  2  3  1  0  0  0
  3  4  1  0  0  0
  4  5  1  0  0  0
  5  6  1  0  0  0
  6  7  1  0  0  0
  7  8  2  0  0  0
  7  9  1  0  0  0
  9 11  1  0  0  0
 11 12  2  0  0  0
 12 13  1  0  0  0
 13 14  1  0  0  0
 13 15  1  0  0  0
 15 16  2  0  0  0
 16 17  1  0  0  0
 17 18  1  0  0  0
 17 19  1  0  0  0
 17 20  1  0  0  0
  6  1  1  0  0  0
 16 11  1  0  0  0
  9 10  1  0  0  0
M  END
> <minimizedAffinity>
-8.57191

$$$$
OCNT-2310598


 23 26  0  0  0  0  0  0  0  0999 V2000
   -1.5446   27.2684    5.6781 N   0  0  0  0  0  0  0  0  0  0  0  0
   -1.2088   26.0263    4.9585 C   0  0  0  0  0  0  0  0  0  0  0  0
   -2.1724   25.7543    3.7820 C   0  0  0  0  0  0  0  0  0  0  0  0
   -3.5823   25.7490    4.2296 N   0  0  0  0  0  0  0  0  0  0  0  0
   -3.9453   26.9420    5.0197 C   0  0  0  0  0  0  0  0  0  0  0  0
   -2.9332   27.1886    6.1638 C   0  0  0  0  0  0  0  0  0  0  0  0
   -4.4852   25.2396    3.3289 C   0  0  0  0  0  0  0  0  0  0  0  0
   -4.6924   25.7755    2.1402 N   0  0  0  0  0  0  0  0  0  0  0  0
   -5.6319   25.0533    1.4322 C   0  0  0  0  0  0  0  0  0  0  0  0
   -6.1223   25.3121    0.1413 C   0  0  0  0  0  0  0  0  0  0  0  0
   -7.0782   24.4418   -0.3823 C   0  0  0  0  0  0  0  0  0  0  0  0
   -7.4991   23.3671    0.3888 C   0  0  0  0  0  0  0  0  0  0  0  0
   -7.0618   23.0713    1.6331 N   0  0  0  0  0  0  0  0  0  0  0  0
   -6.1381   23.9430    2.0927 C   0  0  0  0  0  0  0  0  0  0  0  0
   -5.4205   23.8021    3.6228 S   0  0  0  0  0  0  0  0  0  0  0  0
   -0.5772   27.6091    6.7324 C   0  0  0  0  0  0  0  0  0  0  0  0
    0.1543   28.9592    6.6174 C   0  0  0  0  0  0  0  0  0  0  0  0
   -1.9446   32.1168    8.6769 C   0  0  0  0  0  0  0  0  0  0  0  0
   -1.0492   31.3058    9.3718 C   0  0  0  0  0  0  0  0  0  0  0  0
   -0.3736   30.2809    8.7077 C   0  0  0  0  0  0  0  0  0  0  0  0
   -0.5917   30.0559    7.3418 C   0  0  0  0  0  0  0  0  0  0  0  0
   -1.4899   30.8805    6.6510 C   0  0  0  0  0  0  0  0  0  0  0  0
   -2.1644   31.9048    7.3172 C   0  0  0  0  0  0  0  0  0  0  0  0
 18 19  2  0  0  0
 19 20  1  0  0  0
 20 21  2  0  0  0
 21 17  1  0  0  0
 17 16  1  0  0  0
 16  1  1  0  0  0
  1  2  1  0  0  0
  2  3  1  0  0  0
  3  4  1  0  0  0
  4  7  1  0  0  0
  7  8  2  0  0  0
  8  9  1  0  0  0
  9 10  1  0  0  0
 10 11  2  0  0  0
 11 12  1  0  0  0
 12 13  2  0  0  0
 13 14  1  0  0  0
 14 15  1  0  0  0
  4  5  1  0  0  0
  5  6  1  0  0  0
 21 22  1  0  0  0
 22 23  2  0  0  0
 23 18  1  0  0  0
  6  1  1  0  0  0
 15  7  1  0  0  0
 14  9  2  0  0  0
M  END
> <minimizedAffinity>
-9.35871

$$$$
OCNT-2310605


 25 27  0  0  0  0  0  0  0  0999 V2000
   -5.0562   29.8991    7.8569 C   0  0  0  0  0  0  0  0  0  0  0  0
   -5.5341   28.9543    8.4785 O   0  0  0  0  0  0  0  0  0  0  0  0
   -5.5419   30.2927    6.6329 N   0  0  0  0  0  0  0  0  0  0  0  0
   -5.1790   31.1534    6.2374 H   0  0  0  0  0  0  0  0  0  0  0  0
   -3.9471   32.0164    8.8294 C   0  0  0  0  0  0  0  0  0  0  0  0
   -2.7857   32.6214    9.3370 C   0  0  0  0  0  0  0  0  0  0  0  0
   -1.5999   31.8942    9.4595 C   0  0  0  0  0  0  0  0  0  0  0  0
   -1.5679   30.5632    9.0735 C   0  0  0  0  0  0  0  0  0  0  0  0
   -0.4289   29.8699    9.1936 F   0  0  0  0  0  0  0  0  0  0  0  0
   -2.6976   29.9440    8.5603 C   0  0  0  0  0  0  0  0  0  0  0  0
   -3.8976   30.6630    8.4235 C   0  0  0  0  0  0  0  0  0  0  0  0
   -5.1184   33.9312    8.0017 C   0  0  0  0  0  0  0  0  0  0  0  0
   -5.1386   32.6855    8.6929 O   0  0  0  0  0  0  0  0  0  0  0  0
   -6.7311   29.7166    6.0542 C   0  0  0  0  0  0  0  0  0  0  0  0
   -6.3881   28.5768    5.1404 C   0  0  0  0  0  0  0  0  0  0  0  0
   -6.0561   28.7802    3.7999 C   0  0  0  0  0  0  0  0  0  0  0  0
   -5.7613   27.6895    2.9798 C   0  0  0  0  0  0  0  0  0  0  0  0
   -5.8135   26.4096    3.5261 C   0  0  0  0  0  0  0  0  0  0  0  0
   -6.1434   26.1885    4.8246 N   0  0  0  0  0  0  0  0  0  0  0  0
   -6.4252   27.2649    5.5950 C   0  0  0  0  0  0  0  0  0  0  0  0
   -5.5227   25.2682    2.7278 N   0  0  0  0  0  0  0  0  0  0  0  0
   -6.1625   24.0483    2.8051 C   0  0  0  0  0  0  0  0  0  0  0  0
   -5.5704   23.2477    1.8595 C   0  0  0  0  0  0  0  0  0  0  0  0
   -4.5852   23.9273    1.1978 N   0  0  0  0  0  0  0  0  0  0  0  0
   -4.5777   25.1280    1.7370 C   0  0  0  0  0  0  0  0  0  0  0  0
 12 13  1  0  0  0
 13  5  1  0  0  0
  5  6  1  0  0  0
  6  7  2  0  0  0
  7  8  1  0  0  0
  8  9  1  0  0  0
  8 10  2  0  0  0
 10 11  1  0  0  0
 11  1  1  0  0  0
  1  2  2  0  0  0
  1  3  1  0  0  0
  3 14  1  0  0  0
 14 15  1  0  0  0
 15 16  2  0  0  0
 16 17  1  0  0  0
 17 18  2  0  0  0
 18 21  1  0  0  0
 21 22  1  0  0  0
 22 23  2  0  0  0
 23 24  1  0  0  0
 24 25  2  0  0  0
 18 19  1  0  0  0
 19 20  2  0  0  0
 11  5  2  0  0  0
 20 15  1  0  0  0
 25 21  1  0  0  0
  3  4  1  0  0  0
M  END
> <minimizedAffinity>
-8.87209

$$$$
OCNT-2310606


 25 27  0  0  0  0  0  0  0  0999 V2000
   -6.4586   24.3500   -0.5989 C   0  0  0  0  0  0  0  0  0  0  0  0
   -5.4866   25.3384    1.4293 C   0  0  0  0  0  0  0  0  0  0  0  0
   -4.3975   24.8110    1.2353 O   0  0  0  0  0  0  0  0  0  0  0  0
   -6.5575   25.2213    0.5635 N   0  0  0  0  0  0  0  0  0  0  0  0
   -7.4807   25.4000    0.9360 H   0  0  0  0  0  0  0  0  0  0  0  0
   -6.4221   28.2172    6.3876 C   0  0  0  0  0  0  0  0  0  0  0  0
   -6.1764   27.5049    5.0871 C   0  0  0  0  0  0  0  0  0  0  0  0
   -6.0662   26.1060    5.0780 C   0  0  0  0  0  0  0  0  0  0  0  0
   -5.8385   25.4179    3.8837 C   0  0  0  0  0  0  0  0  0  0  0  0
   -5.7255   26.1157    2.6768 C   0  0  0  0  0  0  0  0  0  0  0  0
   -5.8150   27.5113    2.6757 C   0  0  0  0  0  0  0  0  0  0  0  0
   -6.0439   28.1970    3.8731 C   0  0  0  0  0  0  0  0  0  0  0  0
   -6.1540   29.9210    3.8029 Cl  0  0  0  0  0  0  0  0  0  0  0  0
   -7.1966   23.0292   -0.3937 C   0  0  0  0  0  0  0  0  0  0  0  0
   -6.8444   22.3847    0.9036 C   0  0  0  0  0  0  0  0  0  0  0  0
   -7.4812   22.7330    2.0248 N   0  0  0  0  0  0  0  0  0  0  0  0
   -6.9424   21.9556    3.0017 N   0  0  0  0  0  0  0  0  0  0  0  0
   -5.9556   21.1389    2.4903 C   0  0  0  0  0  0  0  0  0  0  0  0
   -5.8727   21.3941    1.1429 C   0  0  0  0  0  0  0  0  0  0  0  0
   -7.4059   22.0397    4.3450 C   0  0  0  0  0  0  0  0  0  0  0  0
   -6.4738   22.1215    5.3921 C   0  0  0  0  0  0  0  0  0  0  0  0
   -6.9069   22.2142    6.7166 C   0  0  0  0  0  0  0  0  0  0  0  0
   -8.2693   22.2250    7.0062 C   0  0  0  0  0  0  0  0  0  0  0  0
   -9.2012   22.1410    5.9730 C   0  0  0  0  0  0  0  0  0  0  0  0
   -8.7756   22.0488    4.6437 C   0  0  0  0  0  0  0  0  0  0  0  0
  6  7  1  0  0  0
  7  8  1  0  0  0
  8  9  2  0  0  0
  9 10  1  0  0  0
 10  2  1  0  0  0
  2  3  2  0  0  0
  2  4  1  0  0  0
  4  1  1  0  0  0
  1 14  1  0  0  0
 14 15  1  0  0  0
 15 16  2  0  0  0
 16 17  1  0  0  0
 17 20  1  0  0  0
 20 21  2  0  0  0
 21 22  1  0  0  0
 22 23  2  0  0  0
 23 24  1  0  0  0
 24 25  2  0  0  0
 17 18  1  0  0  0
 18 19  2  0  0  0
 10 11  2  0  0  0
 11 12  1  0  0  0
 12 13  1  0  0  0
 12  7  2  0  0  0
 19 15  1  0  0  0
 25 20  1  0  0  0
  4  5  1  0  0  0
M  END
> <minimizedAffinity>
-9.48667

$$$$
OCNT-2310611


 29 31  0  0  0  0  0  0  0  0999 V2000
   -4.9680   26.5417    4.7468 C   0  0  0  0  0  0  0  0  0  0  0  0
   -4.0034   25.9148    5.1778 O   0  0  0  0  0  0  0  0  0  0  0  0
   -5.9114   26.0069    3.8953 N   0  0  0  0  0  0  0  0  0  0  0  0
   -6.5109   26.6666    3.4014 H   0  0  0  0  0  0  0  0  0  0  0  0
   -5.8169   24.6376    3.4082 C   0  0  0  0  0  0  0  0  0  0  0  0
   -6.6306   23.7106    4.3137 C   0  0  0  0  0  0  0  0  0  0  0  0
   -6.7839   22.3192    3.6928 C   0  0  0  0  0  0  0  0  0  0  0  0
   -7.7050   21.4765    4.5883 C   0  0  0  0  0  0  0  0  0  0  0  0
   -5.4486   21.5747    3.5394 C   0  0  0  0  0  0  0  0  0  0  0  0
   -7.4398   22.3915    2.4166 O   0  0  0  0  0  0  0  0  0  0  0  0
   -7.0487   23.4015    1.5798 C   0  0  0  0  0  0  0  0  0  0  0  0
   -7.4844   23.2763    0.2583 C   0  0  0  0  0  0  0  0  0  0  0  0
   -7.1256   24.2270   -0.6952 C   0  0  0  0  0  0  0  0  0  0  0  0
   -6.3215   25.3020   -0.3291 C   0  0  0  0  0  0  0  0  0  0  0  0
   -5.8929   25.4340    0.9936 C   0  0  0  0  0  0  0  0  0  0  0  0
   -6.2769   24.5012    1.9750 C   0  0  0  0  0  0  0  0  0  0  0  0
   -5.1653   28.0301    5.0281 C   0  0  0  0  0  0  0  0  0  0  0  0
   -4.2526   28.9808    7.0988 C   0  0  0  0  0  0  0  0  0  0  0  0
   -5.3536   28.9496    7.6419 O   0  0  0  0  0  0  0  0  0  0  0  0
   -4.0484   28.5215    5.8145 N   0  0  0  0  0  0  0  0  0  0  0  0
   -3.2429   28.8519    5.2982 H   0  0  0  0  0  0  0  0  0  0  0  0
   -0.6895   29.9004    8.0882 C   0  0  0  0  0  0  0  0  0  0  0  0
   -0.9388   30.7948    9.1313 C   0  0  0  0  0  0  0  0  0  0  0  0
   -2.2530   31.0796    9.5125 C   0  0  0  0  0  0  0  0  0  0  0  0
   -3.3221   30.4790    8.8462 C   0  0  0  0  0  0  0  0  0  0  0  0
   -3.0827   29.5935    7.7885 C   0  0  0  0  0  0  0  0  0  0  0  0
   -1.7634   29.2981    7.4230 C   0  0  0  0  0  0  0  0  0  0  0  0
    0.6604   29.2920    6.2275 C   0  0  0  0  0  0  0  0  0  0  0  0
    0.5427   29.5299    7.6244 O   0  0  0  0  0  0  0  0  0  0  0  0
 28 29  1  0  0  0
 29 22  1  0  0  0
 22 23  1  0  0  0
 23 24  2  0  0  0
 24 25  1  0  0  0
 25 26  2  0  0  0
 26 18  1  0  0  0
 18 19  2  0  0  0
 18 20  1  0  0  0
 20 17  1  0  0  0
 17  1  1  0  0  0
  1  2  2  0  0  0
  1  3  1  0  0  0
  3  5  1  0  0  0
  5  6  1  0  0  0
  6  7  1  0  0  0
  7  8  1  0  0  0
  7  9  1  0  0  0
  7 10  1  0  0  0
 10 11  1  0  0  0
 11 12  2  0  0  0
 12 13  1  0  0  0
 13 14  2  0  0  0
 14 15  1  0  0  0
 15 16  2  0  0  0
 26 27  1  0  0  0
 27 22  2  0  0  0
 16  5  1  0  0  0
 16 11  1  0  0  0
 20 21  1  0  0  0
  3  4  1  0  0  0
M  END
> <minimizedAffinity>
-10.08980

$$$$
OCNT-2310613


 24 26  0  0  0  0  0  0  0  0999 V2000
   -5.4673   29.3678    6.3245 O   0  0  0  0  0  0  0  0  0  0  0  0
   -4.4250   28.7212    6.2886 C   0  0  0  0  0  0  0  0  0  0  0  0
   -4.3063   27.5296    5.6064 N   0  0  0  0  0  0  0  0  0  0  0  0
   -3.3850   27.1188    5.4956 H   0  0  0  0  0  0  0  0  0  0  0  0
   -3.2227   29.2306    7.0061 C   0  0  0  0  0  0  0  0  0  0  0  0
   -2.4128   28.3022    7.6862 C   0  0  0  0  0  0  0  0  0  0  0  0
   -1.2720   28.7236    8.3753 C   0  0  0  0  0  0  0  0  0  0  0  0
   -0.9397   30.0734    8.3865 C   0  0  0  0  0  0  0  0  0  0  0  0
    0.1541   30.4745    9.0475 F   0  0  0  0  0  0  0  0  0  0  0  0
   -1.7322   30.9989    7.7208 C   0  0  0  0  0  0  0  0  0  0  0  0
   -1.4042   32.2987    7.7393 F   0  0  0  0  0  0  0  0  0  0  0  0
   -2.8681   30.5818    7.0344 C   0  0  0  0  0  0  0  0  0  0  0  0
   -3.6142   31.5061    6.4077 F   0  0  0  0  0  0  0  0  0  0  0  0
   -5.3787   27.0185    4.7566 C   0  0  0  0  0  0  0  0  0  0  0  0
   -5.6074   25.5217    4.9982 C   0  0  0  0  0  0  0  0  0  0  0  0
   -4.8793   24.6679    3.9633 C   0  0  0  0  0  0  0  0  0  0  0  0
   -5.2701   24.9626    2.5795 N   0  0  0  0  0  0  0  0  0  0  0  0
   -5.7715   26.3230    2.3649 C   0  0  0  0  0  0  0  0  0  0  0  0
   -5.0851   27.3299    3.2839 C   0  0  0  0  0  0  0  0  0  0  0  0
   -6.0465   23.8912    1.9513 C   0  0  0  0  0  0  0  0  0  0  0  0
   -6.6156   24.1718    0.5551 C   0  0  0  0  0  0  0  0  0  0  0  0
   -7.0296   22.7973    0.0268 C   0  0  0  0  0  0  0  0  0  0  0  0
   -6.2832   21.7658    0.8742 C   0  0  0  0  0  0  0  0  0  0  0  0
   -5.3093   22.5654    1.7329 C   0  0  0  0  0  0  0  0  0  0  0  0
  1  2  2  0  0  0
  2  3  1  0  0  0
  3 14  1  0  0  0
 14 15  1  0  0  0
 15 16  1  0  0  0
 16 17  1  0  0  0
 17 20  1  0  0  0
 20 21  1  0  0  0
 21 22  1  0  0  0
 22 23  1  0  0  0
 23 24  1  0  0  0
 17 18  1  0  0  0
 18 19  1  0  0  0
  2  5  1  0  0  0
  5  6  1  0  0  0
  6  7  2  0  0  0
  7  8  1  0  0  0
  8  9  1  0  0  0
  8 10  2  0  0  0
 10 11  1  0  0  0
 10 12  1  0  0  0
 12 13  1  0  0  0
 19 14  1  0  0  0
 12  5  2  0  0  0
 24 20  1  0  0  0
  3  4  1  0  0  0
M  END
> <minimizedAffinity>
-9.36949

$$$$
OCNT-2310624


 33 37  0  0  0  0  0  0  0  0999 V2000
   -5.6955   26.7414    3.9232 C   0  0  0  0  0  0  0  0  0  0  0  0
   -5.5947   27.7754    2.9847 C   0  0  0  0  0  0  0  0  0  0  0  0
   -6.0401   29.0555    3.3150 C   0  0  0  0  0  0  0  0  0  0  0  0
   -6.5839   29.3050    4.5782 C   0  0  0  0  0  0  0  0  0  0  0  0
   -6.6943   28.2752    5.5268 C   0  0  0  0  0  0  0  0  0  0  0  0
   -6.2499   26.9883    5.1857 C   0  0  0  0  0  0  0  0  0  0  0  0
   -4.8757   24.6157    4.4981 O   0  0  0  0  0  0  0  0  0  0  0  0
   -5.2460   25.3634    3.6026 C   0  0  0  0  0  0  0  0  0  0  0  0
   -5.2541   25.0265    2.2695 N   0  0  0  0  0  0  0  0  0  0  0  0
   -5.3499   25.7575    1.5771 H   0  0  0  0  0  0  0  0  0  0  0  0
   -4.6881   23.7723    1.8382 C   0  0  0  0  0  0  0  0  0  0  0  0
   -5.6971   22.7022    2.0798 C   0  0  0  0  0  0  0  0  0  0  0  0
   -5.4548   21.4347    2.5802 C   0  0  0  0  0  0  0  0  0  0  0  0
   -6.6450   20.7576    2.6497 N   0  0  0  0  0  0  0  0  0  0  0  0
   -7.6526   21.5625    2.1891 C   0  0  0  0  0  0  0  0  0  0  0  0
   -7.0986   22.7721    1.8302 C   0  0  0  0  0  0  0  0  0  0  0  0
   -6.7599   19.8108    2.9917 H   0  0  0  0  0  0  0  0  0  0  0  0
   -7.2449   28.5487    6.9046 C   0  0  0  0  0  0  0  0  0  0  0  0
   -6.1935   28.9647    7.8136 N   0  0  0  0  0  0  0  0  0  0  0  0
   -4.9891   29.5288    7.5046 C   0  0  0  0  0  0  0  0  0  0  0  0
   -4.3893   29.7176    8.7309 C   0  0  0  0  0  0  0  0  0  0  0  0
   -5.2438   29.3032    9.7178 N   0  0  0  0  0  0  0  0  0  0  0  0
   -6.3495   28.8439    9.1444 N   0  0  0  0  0  0  0  0  0  0  0  0
   -3.0679   30.2793    8.9619 C   0  0  0  0  0  0  0  0  0  0  0  0
   -2.9795   31.4975    9.6633 C   0  0  0  0  0  0  0  0  0  0  0  0
   -1.7428   32.0828    9.9260 C   0  0  0  0  0  0  0  0  0  0  0  0
   -0.5778   31.4600    9.4904 C   0  0  0  0  0  0  0  0  0  0  0  0
   -0.6348   30.2443    8.7872 C   0  0  0  0  0  0  0  0  0  0  0  0
    0.5313   29.6118    8.3426 C   0  0  0  0  0  0  0  0  0  0  0  0
    0.5662   28.4488    7.6543 N   0  0  0  0  0  0  0  0  0  0  0  0
   -0.6245   27.8771    7.3940 C   0  0  0  0  0  0  0  0  0  0  0  0
   -1.8431   28.4159    7.7851 C   0  0  0  0  0  0  0  0  0  0  0  0
   -1.8795   29.6304    8.5090 C   0  0  0  0  0  0  0  0  0  0  0  0
  7  8  2  0  0  0
  8  9  1  0  0  0
  9 11  1  0  0  0
 11 12  1  0  0  0
 12 13  2  0  0  0
 13 14  1  0  0  0
 14 15  1  0  0  0
 15 16  2  0  0  0
  8  1  1  0  0  0
  1  2  1  0  0  0
  2  3  2  0  0  0
  3  4  1  0  0  0
  4  5  2  0  0  0
  5 18  1  0  0  0
 18 19  1  0  0  0
 19 20  1  0  0  0
 20 21  2  0  0  0
 21 24  1  0  0  0
 24 25  2  0  0  0
 25 26  1  0  0  0
 26 27  2  0  0  0
 27 28  1  0  0  0
 28 29  2  0  0  0
 29 30  1  0  0  0
 30 31  2  0  0  0
 31 32  1  0  0  0
 32 33  2  0  0  0
 21 22  1  0  0  0
 22 23  2  0  0  0
  5  6  1  0  0  0
 16 12  1  0  0  0
  6  1  2  0  0  0
 23 19  1  0  0  0
 33 24  1  0  0  0
 33 28  1  0  0  0
  9 10  1  0  0  0
 14 17  1  0  0  0
M  END
> <minimizedAffinity>
-11.28009

$$$$
OCNT-2310627


 29 31  0  0  0  0  0  0  0  0999 V2000
   -5.3815   30.9792    7.9664 C   0  0  0  0  0  0  0  0  0  0  0  0
   -5.9398   30.4576    8.9252 O   0  0  0  0  0  0  0  0  0  0  0  0
   -5.7421   30.7309    6.6603 N   0  0  0  0  0  0  0  0  0  0  0  0
   -5.4004   31.3493    5.9372 H   0  0  0  0  0  0  0  0  0  0  0  0
   -1.6286   30.6130    8.0576 N   0  0  0  0  0  0  0  0  0  0  0  0
   -2.4527   30.6866    6.8211 C   0  0  0  0  0  0  0  0  0  0  0  0
   -3.3137   31.9468    6.8732 C   0  0  0  0  0  0  0  0  0  0  0  0
   -4.2210   31.9632    8.1097 C   0  0  0  0  0  0  0  0  0  0  0  0
   -3.4031   31.6977    9.3805 C   0  0  0  0  0  0  0  0  0  0  0  0
   -2.5003   30.4692    9.2611 C   0  0  0  0  0  0  0  0  0  0  0  0
   -1.2614   28.1433    8.4310 N   0  0  0  0  0  0  0  0  0  0  0  0
   -0.3705   29.4777    8.0103 S   0  0  0  0  0  0  0  0  0  0  0  0
    0.5463   29.7548    9.0852 O   0  0  0  0  0  0  0  0  0  0  0  0
    0.0367   29.2805    6.6433 O   0  0  0  0  0  0  0  0  0  0  0  0
   -1.9583   27.9200    7.7268 H   0  0  0  0  0  0  0  0  0  0  0  0
   -1.5505   28.1281    9.4014 H   0  0  0  0  0  0  0  0  0  0  0  0
   -6.8837   29.9040    6.3362 C   0  0  0  0  0  0  0  0  0  0  0  0
   -6.5086   28.8418    5.3363 C   0  0  0  0  0  0  0  0  0  0  0  0
   -6.1672   29.1890    4.0246 C   0  0  0  0  0  0  0  0  0  0  0  0
   -5.7927   28.2100    3.0950 C   0  0  0  0  0  0  0  0  0  0  0  0
   -5.7452   26.8545    3.4608 C   0  0  0  0  0  0  0  0  0  0  0  0
   -6.0799   26.5178    4.7778 C   0  0  0  0  0  0  0  0  0  0  0  0
   -6.0545   25.2546    5.2223 F   0  0  0  0  0  0  0  0  0  0  0  0
   -6.4535   27.4947    5.7045 C   0  0  0  0  0  0  0  0  0  0  0  0
   -5.3621   25.8655    2.5072 N   0  0  0  0  0  0  0  0  0  0  0  0
   -4.2459   25.0552    2.5147 C   0  0  0  0  0  0  0  0  0  0  0  0
   -4.3202   24.2742    1.3861 C   0  0  0  0  0  0  0  0  0  0  0  0
   -5.4423   24.5653    0.6716 N   0  0  0  0  0  0  0  0  0  0  0  0
   -6.0446   25.5111    1.3584 C   0  0  0  0  0  0  0  0  0  0  0  0
 11 12  1  0  0  0
 12 13  2  0  0  0
 12 14  2  0  0  0
 12  5  1  0  0  0
  5  6  1  0  0  0
  6  7  1  0  0  0
  7  8  1  0  0  0
  8  1  1  0  0  0
  1  2  2  0  0  0
  1  3  1  0  0  0
  3 17  1  0  0  0
 17 18  1  0  0  0
 18 19  1  0  0  0
 19 20  2  0  0  0
 20 21  1  0  0  0
 21 25  1  0  0  0
 25 26  1  0  0  0
 26 27  2  0  0  0
 27 28  1  0  0  0
 28 29  2  0  0  0
 21 22  2  0  0  0
 22 23  1  0  0  0
 22 24  1  0  0  0
  8  9  1  0  0  0
  9 10  1  0  0  0
 10  5  1  0  0  0
 24 18  2  0  0  0
 29 25  1  0  0  0
 11 15  1  0  0  0
 11 16  1  0  0  0
  3  4  1  0  0  0
M  END
> <minimizedAffinity>
-9.56633

$$$$
OCNT-2310632


 26 30  0  0  0  0  0  0  0  0999 V2000
   -5.8906   26.6378    3.6559 C   0  0  0  0  0  0  0  0  0  0  0  0
   -5.9108   27.5932    2.7139 N   0  0  0  0  0  0  0  0  0  0  0  0
   -5.9489   28.7775    3.4465 O   0  0  0  0  0  0  0  0  0  0  0  0
   -5.9491   28.4299    4.7708 C   0  0  0  0  0  0  0  0  0  0  0  0
   -5.9152   27.1230    4.9447 N   0  0  0  0  0  0  0  0  0  0  0  0
   -5.6910   24.2875    4.5726 C   0  0  0  0  0  0  0  0  0  0  0  0
   -5.6504   22.9582    4.3748 C   0  0  0  0  0  0  0  0  0  0  0  0
   -5.7574   22.4654    3.0813 N   0  0  0  0  0  0  0  0  0  0  0  0
   -5.7446   21.1746    2.6177 C   0  0  0  0  0  0  0  0  0  0  0  0
   -5.8726   21.1172    1.3089 N   0  0  0  0  0  0  0  0  0  0  0  0
   -5.9731   22.4247    0.8990 C   0  0  0  0  0  0  0  0  0  0  0  0
   -5.9054   23.2808    1.9738 C   0  0  0  0  0  0  0  0  0  0  0  0
   -5.9494   24.6883    2.1787 C   0  0  0  0  0  0  0  0  0  0  0  0
   -5.8480   25.2112    3.4291 C   0  0  0  0  0  0  0  0  0  0  0  0
   -5.9861   29.3854    5.8355 C   0  0  0  0  0  0  0  0  0  0  0  0
   -7.0574   29.7408    6.6395 C   0  0  0  0  0  0  0  0  0  0  0  0
   -6.5958   30.7243    7.5467 C   0  0  0  0  0  0  0  0  0  0  0  0
   -5.2620   30.9178    7.2587 C   0  0  0  0  0  0  0  0  0  0  0  0
   -4.8925   30.1197    6.2163 O   0  0  0  0  0  0  0  0  0  0  0  0
   -4.2079   31.8068    7.8326 C   0  0  0  0  0  0  0  0  0  0  0  0
   -3.7237   31.3423    9.1432 N   0  0  0  0  0  0  0  0  0  0  0  0
   -3.2202   29.9627    9.0788 C   0  0  0  0  0  0  0  0  0  0  0  0
   -1.8694   29.8287    8.3711 C   0  0  0  0  0  0  0  0  0  0  0  0
   -0.8269   30.7528    8.9914 C   0  0  0  0  0  0  0  0  0  0  0  0
   -1.3501   32.1824    9.0853 C   0  0  0  0  0  0  0  0  0  0  0  0
   -2.7247   32.2283    9.7579 C   0  0  0  0  0  0  0  0  0  0  0  0
  6  7  2  0  0  0
  7  8  1  0  0  0
  8  9  1  0  0  0
  9 10  2  0  0  0
 10 11  1  0  0  0
 11 12  2  0  0  0
 12 13  1  0  0  0
 13 14  2  0  0  0
 14  1  1  0  0  0
  1  2  2  0  0  0
  2  3  1  0  0  0
  3  4  1  0  0  0
  4 15  1  0  0  0
 15 16  2  0  0  0
 16 17  1  0  0  0
 17 18  2  0  0  0
 18 20  1  0  0  0
 20 21  1  0  0  0
 21 22  1  0  0  0
 22 23  1  0  0  0
 23 24  1  0  0  0
 24 25  1  0  0  0
 25 26  1  0  0  0
 18 19  1  0  0  0
  4  5  2  0  0  0
 14  6  1  0  0  0
  5  1  1  0  0  0
 12  8  1  0  0  0
 19 15  1  0  0  0
 26 21  1  0  0  0
M  END
> <minimizedAffinity>
-9.56612

$$$$
OCNT-2310634


 28 31  0  0  0  0  0  0  0  0999 V2000
   -4.4016   30.3335    9.4448 C   0  0  0  0  0  0  0  0  0  0  0  0
   -3.9381   30.4755    7.9892 C   0  0  0  0  0  0  0  0  0  0  0  0
   -5.0952   30.6873    6.9799 C   0  0  0  0  0  0  0  0  0  0  0  0
   -5.0613   29.2429    6.7594 N   0  0  0  0  0  0  0  0  0  0  0  0
   -5.6364   28.5919    5.6864 C   0  0  0  0  0  0  0  0  0  0  0  0
   -6.4527   29.1548    4.9646 O   0  0  0  0  0  0  0  0  0  0  0  0
   -5.1982   27.2909    5.5612 N   0  0  0  0  0  0  0  0  0  0  0  0
   -3.7232   29.0928    7.3193 C   0  0  0  0  0  0  0  0  0  0  0  0
   -4.6647   26.9495    6.3450 H   0  0  0  0  0  0  0  0  0  0  0  0
   -5.5275   26.3564    4.5614 C   0  0  0  0  0  0  0  0  0  0  0  0
   -5.3160   26.5642    3.2023 C   0  0  0  0  0  0  0  0  0  0  0  0
   -5.6618   25.5740    2.2795 C   0  0  0  0  0  0  0  0  0  0  0  0
   -6.2107   24.3594    2.6998 C   0  0  0  0  0  0  0  0  0  0  0  0
   -6.4945   23.4889    1.6799 O   0  0  0  0  0  0  0  0  0  0  0  0
   -6.3038   22.1134    2.0124 C   0  0  0  0  0  0  0  0  0  0  0  0
   -7.5602   21.5190    2.6563 C   0  0  0  0  0  0  0  0  0  0  0  0
   -8.1396   22.3036    3.7532 N   0  0  0  0  0  0  0  0  0  0  0  0
   -7.1103   22.8838    4.6149 C   0  0  0  0  0  0  0  0  0  0  0  0
   -6.4699   24.1383    4.0601 C   0  0  0  0  0  0  0  0  0  0  0  0
   -6.0973   25.1444    4.9781 C   0  0  0  0  0  0  0  0  0  0  0  0
   -8.6725   23.0759    3.3477 H   0  0  0  0  0  0  0  0  0  0  0  0
   -2.7160   31.3882    7.8148 C   0  0  0  0  0  0  0  0  0  0  0  0
   -1.4181   30.6167    7.7893 C   0  0  0  0  0  0  0  0  0  0  0  0
   -0.8699   30.1898    6.5719 C   0  0  0  0  0  0  0  0  0  0  0  0
    0.3228   29.4655    6.5446 C   0  0  0  0  0  0  0  0  0  0  0  0
    0.9833   29.1642    7.7329 C   0  0  0  0  0  0  0  0  0  0  0  0
    0.4530   29.5891    8.9485 C   0  0  0  0  0  0  0  0  0  0  0  0
   -0.7402   30.3127    8.9773 C   0  0  0  0  0  0  0  0  0  0  0  0
  1  2  1  0  0  0
  2 22  1  0  0  0
 22 23  1  0  0  0
 23 24  2  0  0  0
 24 25  1  0  0  0
 25 26  2  0  0  0
 26 27  1  0  0  0
 27 28  2  0  0  0
  2  3  1  0  0  0
  3  4  1  0  0  0
  4  5  1  0  0  0
  5  6  2  0  0  0
  5  7  1  0  0  0
  7 10  1  0  0  0
 10 11  1  0  0  0
 11 12  2  0  0  0
 12 13  1  0  0  0
 13 14  1  0  0  0
 14 15  1  0  0  0
 15 16  1  0  0  0
 16 17  1  0  0  0
 17 18  1  0  0  0
 18 19  1  0  0  0
 19 20  1  0  0  0
  4  8  1  0  0  0
  8  2  1  0  0  0
 28 23  1  0  0  0
 20 10  2  0  0  0
 19 13  2  0  0  0
  7  9  1  0  0  0
 17 21  1  0  0  0
M  END
> <minimizedAffinity>
-10.46416

$$$$
OCNT-2310635


 25 27  0  0  0  0  0  0  0  0999 V2000
   -4.0750   26.2121    3.0755 C   0  0  0  0  0  0  0  0  0  0  0  0
   -2.9927   25.8784    3.5746 O   0  0  0  0  0  0  0  0  0  0  0  0
   -4.6093   25.5553    1.9698 N   0  0  0  0  0  0  0  0  0  0  0  0
   -5.9319   25.8521    1.4139 C   0  0  0  0  0  0  0  0  0  0  0  0
   -6.2921   25.0879    0.1284 C   0  0  0  0  0  0  0  0  0  0  0  0
   -6.6361   23.6678    0.3162 N   0  0  0  0  0  0  0  0  0  0  0  0
   -7.6057   23.1169   -0.6275 C   0  0  0  0  0  0  0  0  0  0  0  0
   -6.1501   22.8780    1.3517 C   0  0  0  0  0  0  0  0  0  0  0  0
   -6.8866   21.7661    1.8129 C   0  0  0  0  0  0  0  0  0  0  0  0
   -6.4564   20.9612    2.8739 C   0  0  0  0  0  0  0  0  0  0  0  0
   -5.2631   21.2448    3.5169 C   0  0  0  0  0  0  0  0  0  0  0  0
   -4.5036   22.3263    3.0878 C   0  0  0  0  0  0  0  0  0  0  0  0
   -4.9256   23.1331    2.0083 C   0  0  0  0  0  0  0  0  0  0  0  0
   -4.0246   24.2734    1.6001 C   0  0  0  0  0  0  0  0  0  0  0  0
   -4.8540   27.3932    3.6920 C   0  0  0  0  0  0  0  0  0  0  0  0
   -4.2533   27.8209    4.9719 N   0  0  0  0  0  0  0  0  0  0  0  0
   -4.1240   26.9837    5.5570 H   0  0  0  0  0  0  0  0  0  0  0  0
   -4.5137   29.5818    6.6608 C   0  0  0  0  0  0  0  0  0  0  0  0
   -5.3367   30.4236    7.4119 C   0  0  0  0  0  0  0  0  0  0  0  0
   -6.7209   30.3971    7.2280 C   0  0  0  0  0  0  0  0  0  0  0  0
   -7.2886   29.5396    6.2887 C   0  0  0  0  0  0  0  0  0  0  0  0
   -6.4739   28.6987    5.5317 C   0  0  0  0  0  0  0  0  0  0  0  0
   -5.0864   28.6959    5.7210 C   0  0  0  0  0  0  0  0  0  0  0  0
   -2.4507   30.7682    6.7146 C   0  0  0  0  0  0  0  0  0  0  0  0
   -3.1435   29.5301    6.7473 O   0  0  0  0  0  0  0  0  0  0  0  0
 24 25  1  0  0  0
 25 18  1  0  0  0
 18 19  2  0  0  0
 19 20  1  0  0  0
 20 21  2  0  0  0
 21 22  1  0  0  0
 22 23  2  0  0  0
 23 16  1  0  0  0
 16 15  1  0  0  0
 15  1  1  0  0  0
  1  2  2  0  0  0
  1  3  1  0  0  0
  3  4  1  0  0  0
  4  5  1  0  0  0
  5  6  1  0  0  0
  6  7  1  0  0  0
  6  8  1  0  0  0
  8  9  2  0  0  0
  9 10  1  0  0  0
 10 11  2  0  0  0
 11 12  1  0  0  0
 12 13  2  0  0  0
 13 14  1  0  0  0
 23 18  1  0  0  0
 14  3  1  0  0  0
 13  8  1  0  0  0
 16 17  1  0  0  0
M  END
> <minimizedAffinity>
-8.69611

$$$$
OCNT-2310639


 28 31  0  0  0  0  0  0  0  0999 V2000
   -6.5026   28.9672    7.7747 O   0  0  0  0  0  0  0  0  0  0  0  0
   -6.1379   29.5457    6.7586 C   0  0  0  0  0  0  0  0  0  0  0  0
   -5.7239   30.8634    6.7296 N   0  0  0  0  0  0  0  0  0  0  0  0
   -5.1333   31.1530    5.9614 H   0  0  0  0  0  0  0  0  0  0  0  0
   -6.0885   28.8128    5.4671 C   0  0  0  0  0  0  0  0  0  0  0  0
   -6.0805   29.5577    4.2900 C   0  0  0  0  0  0  0  0  0  0  0  0
   -6.0312   28.8724    3.0957 C   0  0  0  0  0  0  0  0  0  0  0  0
   -5.9833   27.5269    3.0144 N   0  0  0  0  0  0  0  0  0  0  0  0
   -5.9631   26.8050    4.1678 C   0  0  0  0  0  0  0  0  0  0  0  0
   -6.0148   27.4160    5.4177 C   0  0  0  0  0  0  0  0  0  0  0  0
   -5.8841   25.3815    4.0637 N   0  0  0  0  0  0  0  0  0  0  0  0
   -5.8326   24.4417    5.0676 C   0  0  0  0  0  0  0  0  0  0  0  0
   -5.7797   23.2283    4.5670 N   0  0  0  0  0  0  0  0  0  0  0  0
   -5.7939   23.4602    3.2257 C   0  0  0  0  0  0  0  0  0  0  0  0
   -5.8562   24.7408    2.8654 N   0  0  0  0  0  0  0  0  0  0  0  0
   -5.5989   31.6089    7.9694 C   0  0  0  0  0  0  0  0  0  0  0  0
   -4.2203   32.2668    8.1105 C   0  0  0  0  0  0  0  0  0  0  0  0
   -3.7109   32.2426    9.5638 C   0  0  0  0  0  0  0  0  0  0  0  0
   -2.5613   31.2549    9.7597 C   0  0  0  0  0  0  0  0  0  0  0  0
   -1.4195   31.5997    8.9101 N   0  0  0  0  0  0  0  0  0  0  0  0
   -1.7771   31.9202    7.5222 C   0  0  0  0  0  0  0  0  0  0  0  0
   -3.2242   31.5894    7.1584 C   0  0  0  0  0  0  0  0  0  0  0  0
   -0.3516   30.5951    9.0236 C   0  0  0  0  0  0  0  0  0  0  0  0
   -0.5664   29.4209    8.1041 C   0  0  0  0  0  0  0  0  0  0  0  0
   -1.4776   28.3885    8.2271 C   0  0  0  0  0  0  0  0  0  0  0  0
   -1.3754   27.4423    7.1661 C   0  0  0  0  0  0  0  0  0  0  0  0
   -0.3829   27.7751    6.2718 C   0  0  0  0  0  0  0  0  0  0  0  0
    0.4145   29.2231    6.7086 S   0  0  0  0  0  0  0  0  0  0  0  0
  1  2  2  0  0  0
  2  3  1  0  0  0
  3 16  1  0  0  0
 16 17  1  0  0  0
 17 18  1  0  0  0
 18 19  1  0  0  0
 19 20  1  0  0  0
 20 23  1  0  0  0
 23 24  1  0  0  0
 24 25  2  0  0  0
 25 26  1  0  0  0
 26 27  2  0  0  0
 27 28  1  0  0  0
 20 21  1  0  0  0
 21 22  1  0  0  0
  2  5  1  0  0  0
  5  6  2  0  0  0
  6  7  1  0  0  0
  7  8  2  0  0  0
  8  9  1  0  0  0
  9 11  1  0  0  0
 11 12  1  0  0  0
 12 13  2  0  0  0
 13 14  1  0  0  0
 14 15  2  0  0  0
  9 10  2  0  0  0
 22 17  1  0  0  0
 10  5  1  0  0  0
 28 24  1  0  0  0
 15 11  1  0  0  0
  3  4  1  0  0  0
M  END
> <minimizedAffinity>
-9.16923

$$$$
OCNT-2310648


 30 33  0  0  0  0  0  0  0  0999 V2000
   -5.8206   24.1278    3.4025 C   0  0  0  0  0  0  0  0  0  0  0  0
   -4.6701   24.3192    4.0214 N   0  0  0  0  0  0  0  0  0  0  0  0
   -3.7897   25.0508    3.2331 C   0  0  0  0  0  0  0  0  0  0  0  0
   -4.2842   25.3758    1.9851 C   0  0  0  0  0  0  0  0  0  0  0  0
   -5.8825   24.7963    1.8136 S   0  0  0  0  0  0  0  0  0  0  0  0
   -9.1406   22.0735    5.2334 C   0  0  0  0  0  0  0  0  0  0  0  0
   -8.4823   23.1153    5.8910 C   0  0  0  0  0  0  0  0  0  0  0  0
   -7.4093   23.7696    5.2754 C   0  0  0  0  0  0  0  0  0  0  0  0
   -6.9585   23.3945    3.9972 C   0  0  0  0  0  0  0  0  0  0  0  0
   -7.6237   22.3361    3.3551 C   0  0  0  0  0  0  0  0  0  0  0  0
   -8.7017   21.6786    3.9660 C   0  0  0  0  0  0  0  0  0  0  0  0
  -11.2300   20.8151    5.1407 N   0  0  0  0  0  0  0  0  0  0  0  0
  -10.2761   21.4056    5.9232 C   0  0  0  0  0  0  0  0  0  0  0  0
  -10.3810   21.4090    7.1428 O   0  0  0  0  0  0  0  0  0  0  0  0
  -12.0541   20.4907    5.6314 H   0  0  0  0  0  0  0  0  0  0  0  0
  -11.3390   21.0494    4.1648 H   0  0  0  0  0  0  0  0  0  0  0  0
   -2.4236   25.3765    3.7688 C   0  0  0  0  0  0  0  0  0  0  0  0
   -2.3806   26.5230    4.6871 N   0  0  0  0  0  0  0  0  0  0  0  0
   -3.6624   26.8149    5.3503 C   0  0  0  0  0  0  0  0  0  0  0  0
   -3.5956   28.0977    6.2165 C   0  0  0  0  0  0  0  0  0  0  0  0
   -2.5001   27.9984    7.2053 N   0  0  0  0  0  0  0  0  0  0  0  0
   -1.1999   27.7006    6.5595 C   0  0  0  0  0  0  0  0  0  0  0  0
   -1.3058   26.4209    5.6969 C   0  0  0  0  0  0  0  0  0  0  0  0
   -2.4398   29.1078    8.0704 C   0  0  0  0  0  0  0  0  0  0  0  0
   -1.2068   29.7295    8.3047 C   0  0  0  0  0  0  0  0  0  0  0  0
   -1.1283   30.8408    9.1448 C   0  0  0  0  0  0  0  0  0  0  0  0
   -2.2883   31.3137    9.7265 C   0  0  0  0  0  0  0  0  0  0  0  0
   -2.2572   32.3778   10.5374 F   0  0  0  0  0  0  0  0  0  0  0  0
   -3.4759   30.6705    9.4461 C   0  0  0  0  0  0  0  0  0  0  0  0
   -3.5725   29.5904    8.6328 N   0  0  0  0  0  0  0  0  0  0  0  0
 12 13  1  0  0  0
 13 14  2  0  0  0
 13  6  1  0  0  0
  6  7  1  0  0  0
  7  8  2  0  0  0
  8  9  1  0  0  0
  9  1  1  0  0  0
  1  2  2  0  0  0
  2  3  1  0  0  0
  3 17  1  0  0  0
 17 18  1  0  0  0
 18 19  1  0  0  0
 19 20  1  0  0  0
 20 21  1  0  0  0
 21 24  1  0  0  0
 24 25  2  0  0  0
 25 26  1  0  0  0
 26 27  2  0  0  0
 27 28  1  0  0  0
 27 29  1  0  0  0
 29 30  2  0  0  0
 21 22  1  0  0  0
 22 23  1  0  0  0
  3  4  2  0  0  0
  4  5  1  0  0  0
  9 10  2  0  0  0
 10 11  1  0  0  0
 11  6  2  0  0  0
  5  1  1  0  0  0
 23 18  1  0  0  0
 30 24  1  0  0  0
 12 15  1  0  0  0
 12 16  1  0  0  0
M  END
> <minimizedAffinity>
-9.51915

$$$$
OCNT-2310650


 24 27  0  0  0  0  0  0  0  0999 V2000
   -2.9615   28.8614    6.6694 C   0  0  0  0  0  0  0  0  0  0  0  0
   -2.4923   27.6134    6.3070 C   0  0  0  0  0  0  0  0  0  0  0  0
   -3.5024   27.0376    5.4985 C   0  0  0  0  0  0  0  0  0  0  0  0
   -4.5351   27.8736    5.3466 N   0  0  0  0  0  0  0  0  0  0  0  0
   -4.1822   28.9601    6.0511 N   0  0  0  0  0  0  0  0  0  0  0  0
   -4.8186   29.7487    6.0580 H   0  0  0  0  0  0  0  0  0  0  0  0
   -0.7486   30.7231    9.0531 C   0  0  0  0  0  0  0  0  0  0  0  0
   -1.2655   29.6762    8.3051 C   0  0  0  0  0  0  0  0  0  0  0  0
   -2.3698   29.9200    7.4847 C   0  0  0  0  0  0  0  0  0  0  0  0
   -2.8972   31.2128    7.4517 C   0  0  0  0  0  0  0  0  0  0  0  0
   -2.3129   32.1919    8.2393 C   0  0  0  0  0  0  0  0  0  0  0  0
   -1.2509   31.9744    9.0416 N   0  0  0  0  0  0  0  0  0  0  0  0
   -3.5239   25.6854    4.8392 C   0  0  0  0  0  0  0  0  0  0  0  0
   -4.9490   25.1109    4.8080 C   0  0  0  0  0  0  0  0  0  0  0  0
   -5.0786   23.9832    3.7900 C   0  0  0  0  0  0  0  0  0  0  0  0
   -4.7054   24.4399    2.4486 N   0  0  0  0  0  0  0  0  0  0  0  0
   -3.9056   25.6611    2.3294 C   0  0  0  0  0  0  0  0  0  0  0  0
   -2.8682   25.7047    3.4473 C   0  0  0  0  0  0  0  0  0  0  0  0
   -5.5663   24.1738    1.3849 C   0  0  0  0  0  0  0  0  0  0  0  0
   -5.9975   22.8754    1.0757 C   0  0  0  0  0  0  0  0  0  0  0  0
   -6.8304   22.5590    0.0479 N   0  0  0  0  0  0  0  0  0  0  0  0
   -7.2205   23.6061   -0.7024 C   0  0  0  0  0  0  0  0  0  0  0  0
   -6.7985   24.8940   -0.4363 C   0  0  0  0  0  0  0  0  0  0  0  0
   -5.9741   25.1964    0.5951 N   0  0  0  0  0  0  0  0  0  0  0  0
  7  8  1  0  0  0
  8  9  2  0  0  0
  9  1  1  0  0  0
  1  2  2  0  0  0
  2  3  1  0  0  0
  3 13  1  0  0  0
 13 14  1  0  0  0
 14 15  1  0  0  0
 15 16  1  0  0  0
 16 19  1  0  0  0
 19 20  2  0  0  0
 20 21  1  0  0  0
 21 22  2  0  0  0
 22 23  1  0  0  0
 23 24  2  0  0  0
 16 17  1  0  0  0
 17 18  1  0  0  0
  3  4  2  0  0  0
  4  5  1  0  0  0
  9 10  1  0  0  0
 10 11  2  0  0  0
 11 12  1  0  0  0
 12  7  2  0  0  0
  5  1  1  0  0  0
 18 13  1  0  0  0
 24 19  1  0  0  0
  5  6  1  0  0  0
M  END
> <minimizedAffinity>
-8.59581

$$$$
OCNT-2310655


 27 29  0  0  0  0  0  0  0  0999 V2000
   -5.8655   29.4192    4.3064 C   0  0  0  0  0  0  0  0  0  0  0  0
   -5.5773   23.3055    2.3927 N   0  0  0  0  0  0  0  0  0  0  0  0
   -5.2780   23.8903    3.6025 N   0  0  0  0  0  0  0  0  0  0  0  0
   -5.3631   25.1816    3.6905 C   0  0  0  0  0  0  0  0  0  0  0  0
   -5.1189   25.7943    5.0533 C   0  0  0  0  0  0  0  0  0  0  0  0
   -4.8975   27.2982    5.0070 C   0  0  0  0  0  0  0  0  0  0  0  0
   -5.9445   27.9356    4.1859 N   0  0  0  0  0  0  0  0  0  0  0  0
   -5.7380   27.5541    2.7792 C   0  0  0  0  0  0  0  0  0  0  0  0
   -5.7354   26.0748    2.5710 C   0  0  0  0  0  0  0  0  0  0  0  0
   -6.0479   25.4771    1.4171 C   0  0  0  0  0  0  0  0  0  0  0  0
   -5.9664   24.0112    1.2642 C   0  0  0  0  0  0  0  0  0  0  0  0
   -6.2283   23.5157    0.1714 O   0  0  0  0  0  0  0  0  0  0  0  0
   -4.8035   21.3018    3.5969 C   0  0  0  0  0  0  0  0  0  0  0  0
   -5.4260   21.8573    2.3268 C   0  0  0  0  0  0  0  0  0  0  0  0
   -5.6665   29.8390    5.7696 C   0  0  0  0  0  0  0  0  0  0  0  0
   -6.4342   29.4564    6.6459 O   0  0  0  0  0  0  0  0  0  0  0  0
   -4.5753   30.6817    5.9097 N   0  0  0  0  0  0  0  0  0  0  0  0
   -4.3369   31.1543    5.0414 H   0  0  0  0  0  0  0  0  0  0  0  0
   -4.0405   31.1951    7.1083 C   0  0  0  0  0  0  0  0  0  0  0  0
   -4.5164   32.4510    7.5109 C   0  0  0  0  0  0  0  0  0  0  0  0
   -4.0563   33.0348    8.6912 C   0  0  0  0  0  0  0  0  0  0  0  0
   -4.6738   34.5641    9.1831 Cl  0  0  0  0  0  0  0  0  0  0  0  0
   -3.0981   32.3953    9.4704 C   0  0  0  0  0  0  0  0  0  0  0  0
   -2.5843   31.1662    9.0568 C   0  0  0  0  0  0  0  0  0  0  0  0
   -3.0530   30.5604    7.8821 C   0  0  0  0  0  0  0  0  0  0  0  0
   -2.4204   29.4447    7.3972 O   0  0  0  0  0  0  0  0  0  0  0  0
   -1.4276   28.9409    8.2904 C   0  0  0  0  0  0  0  0  0  0  0  0
 13 14  1  0  0  0
 14  2  1  0  0  0
  2  3  1  0  0  0
  3  4  2  0  0  0
  4  5  1  0  0  0
  5  6  1  0  0  0
  6  7  1  0  0  0
  7  1  1  0  0  0
  1 15  1  0  0  0
 15 16  2  0  0  0
 15 17  1  0  0  0
 17 19  1  0  0  0
 19 20  1  0  0  0
 20 21  2  0  0  0
 21 22  1  0  0  0
 21 23  1  0  0  0
 23 24  2  0  0  0
 24 25  1  0  0  0
 25 26  1  0  0  0
 26 27  1  0  0  0
  7  8  1  0  0  0
  8  9  1  0  0  0
  9 10  2  0  0  0
 10 11  1  0  0  0
 11 12  2  0  0  0
 11  2  1  0  0  0
  9  4  1  0  0  0
 25 19  2  0  0  0
 17 18  1  0  0  0
M  END
> <minimizedAffinity>
-8.98694

$$$$
OCNT-2310665


 27 29  0  0  0  0  0  0  0  0999 V2000
   -4.9815   28.6982    5.3278 O   0  0  0  0  0  0  0  0  0  0  0  0
   -5.8472   27.8350    5.4099 C   0  0  0  0  0  0  0  0  0  0  0  0
   -6.8164   27.8142    6.3910 N   0  0  0  0  0  0  0  0  0  0  0  0
   -7.5274   27.0964    6.3842 H   0  0  0  0  0  0  0  0  0  0  0  0
   -6.8250   28.7844    7.4799 C   0  0  0  0  0  0  0  0  0  0  0  0
   -7.1714   30.1836    6.9632 C   0  0  0  0  0  0  0  0  0  0  0  0
   -7.0323   31.2294    8.0717 C   0  0  0  0  0  0  0  0  0  0  0  0
   -5.7090   31.2339    8.7284 N   0  0  0  0  0  0  0  0  0  0  0  0
   -5.4507   29.8894    9.2710 C   0  0  0  0  0  0  0  0  0  0  0  0
   -5.4811   28.7892    8.2111 C   0  0  0  0  0  0  0  0  0  0  0  0
   -4.6298   31.7714    7.8664 C   0  0  0  0  0  0  0  0  0  0  0  0
   -3.2174   31.6743    8.4778 C   0  0  0  0  0  0  0  0  0  0  0  0
   -3.1699   32.7761    9.5321 C   0  0  0  0  0  0  0  0  0  0  0  0
   -4.1351   33.8506    9.0333 C   0  0  0  0  0  0  0  0  0  0  0  0
   -4.7121   33.3053    7.7279 C   0  0  0  0  0  0  0  0  0  0  0  0
   -5.9064   26.7464    4.3968 C   0  0  0  0  0  0  0  0  0  0  0  0
   -6.2471   25.4568    4.8295 C   0  0  0  0  0  0  0  0  0  0  0  0
   -6.3185   24.4016    3.9174 C   0  0  0  0  0  0  0  0  0  0  0  0
   -6.0699   24.6478    2.5646 C   0  0  0  0  0  0  0  0  0  0  0  0
   -5.7314   25.9299    2.1195 C   0  0  0  0  0  0  0  0  0  0  0  0
   -5.6585   26.9820    3.0371 C   0  0  0  0  0  0  0  0  0  0  0  0
   -6.1353   23.2998    1.4019 S   0  0  0  0  0  0  0  0  0  0  0  0
   -6.5538   22.1207    2.1431 O   0  0  0  0  0  0  0  0  0  0  0  0
   -4.8625   23.2857    0.6974 O   0  0  0  0  0  0  0  0  0  0  0  0
   -7.4421   23.8029    0.2713 C   0  0  0  0  0  0  0  0  0  0  0  0
   -7.0201   24.7244   -0.6412 F   0  0  0  0  0  0  0  0  0  0  0  0
   -7.9395   22.7567   -0.4495 F   0  0  0  0  0  0  0  0  0  0  0  0
  1  2  2  0  0  0
  2  3  1  0  0  0
  3  5  1  0  0  0
  5  6  1  0  0  0
  6  7  1  0  0  0
  7  8  1  0  0  0
  8 11  1  0  0  0
 11 12  1  0  0  0
 12 13  1  0  0  0
 13 14  1  0  0  0
 14 15  1  0  0  0
  8  9  1  0  0  0
  9 10  1  0  0  0
  2 16  1  0  0  0
 16 17  1  0  0  0
 17 18  2  0  0  0
 18 19  1  0  0  0
 19 22  1  0  0  0
 22 23  2  0  0  0
 22 24  2  0  0  0
 22 25  1  0  0  0
 25 26  1  0  0  0
 25 27  1  0  0  0
 19 20  2  0  0  0
 20 21  1  0  0  0
 10  5  1  0  0  0
 21 16  2  0  0  0
 15 11  1  0  0  0
  3  4  1  0  0  0
M  END
> <minimizedAffinity>
-9.32929

$$$$
OCNT-2310680


 27 30  0  0  0  0  0  0  0  0999 V2000
   -1.6622   32.0175    7.0725 C   0  0  0  0  0  0  0  0  0  0  0  0
   -1.8177   30.7922    7.9941 C   0  0  0  0  0  0  0  0  0  0  0  0
   -2.8993   29.8446    7.3874 C   0  0  0  0  0  0  0  0  0  0  0  0
   -4.2633   30.3728    7.5242 N   0  0  0  0  0  0  0  0  0  0  0  0
   -5.3363   30.1155    6.6931 C   0  0  0  0  0  0  0  0  0  0  0  0
   -6.4823   30.4567    6.9764 O   0  0  0  0  0  0  0  0  0  0  0  0
   -5.0410   29.4307    5.5455 N   0  0  0  0  0  0  0  0  0  0  0  0
   -4.5384   31.0570    8.7880 C   0  0  0  0  0  0  0  0  0  0  0  0
   -3.4150   30.8617    9.8039 C   0  0  0  0  0  0  0  0  0  0  0  0
   -2.1610   31.3162    9.2948 O   0  0  0  0  0  0  0  0  0  0  0  0
   -4.1446   29.6357    5.1395 H   0  0  0  0  0  0  0  0  0  0  0  0
   -0.4509   30.1433    8.1560 C   0  0  0  0  0  0  0  0  0  0  0  0
    0.2679   29.3943    7.0562 C   0  0  0  0  0  0  0  0  0  0  0  0
   -0.2686   28.6449    8.2478 C   0  0  0  0  0  0  0  0  0  0  0  0
   -6.0740   29.1341    4.5741 C   0  0  0  0  0  0  0  0  0  0  0  0
   -5.9739   27.7051    4.1012 C   0  0  0  0  0  0  0  0  0  0  0  0
   -5.7590   27.4099    2.7497 C   0  0  0  0  0  0  0  0  0  0  0  0
   -5.7013   26.0818    2.3142 C   0  0  0  0  0  0  0  0  0  0  0  0
   -5.8642   25.0161    3.2138 C   0  0  0  0  0  0  0  0  0  0  0  0
   -6.0844   25.3218    4.5655 C   0  0  0  0  0  0  0  0  0  0  0  0
   -6.1403   26.6482    5.0042 C   0  0  0  0  0  0  0  0  0  0  0  0
   -5.8112   23.6211    2.7531 C   0  0  0  0  0  0  0  0  0  0  0  0
   -6.2871   23.2571    1.4888 C   0  0  0  0  0  0  0  0  0  0  0  0
   -6.2164   21.9282    1.1008 C   0  0  0  0  0  0  0  0  0  0  0  0
   -5.7116   20.9452    1.8749 N   0  0  0  0  0  0  0  0  0  0  0  0
   -5.2569   21.3100    3.0910 C   0  0  0  0  0  0  0  0  0  0  0  0
   -5.2842   22.6120    3.5664 C   0  0  0  0  0  0  0  0  0  0  0  0
  1  2  1  0  0  0
  2 12  1  0  0  0
 12 13  1  0  0  0
 13 14  1  0  0  0
  2  3  1  0  0  0
  3  4  1  0  0  0
  4  5  1  0  0  0
  5  6  2  0  0  0
  5  7  1  0  0  0
  7 15  1  0  0  0
 15 16  1  0  0  0
 16 17  1  0  0  0
 17 18  2  0  0  0
 18 19  1  0  0  0
 19 22  1  0  0  0
 22 23  2  0  0  0
 23 24  1  0  0  0
 24 25  2  0  0  0
 25 26  1  0  0  0
 26 27  2  0  0  0
 19 20  2  0  0  0
 20 21  1  0  0  0
  4  8  1  0  0  0
  8  9  1  0  0  0
  9 10  1  0  0  0
 10  2  1  0  0  0
 14 12  1  0  0  0
 21 16  2  0  0  0
 27 22  1  0  0  0
  7 11  1  0  0  0
M  END
> <minimizedAffinity>
-10.17771

$$$$
OCNT-2310706


 23 25  0  0  0  0  0  0  0  0999 V2000
   -1.8558   29.8423    8.8933 N   0  0  0  0  0  0  0  0  0  0  0  0
   -0.6699   30.6872    9.0195 C   0  0  0  0  0  0  0  0  0  0  0  0
    0.5981   29.8375    9.0053 C   0  0  0  0  0  0  0  0  0  0  0  0
    0.7081   29.0184    7.7150 C   0  0  0  0  0  0  0  0  0  0  0  0
   -0.6470   28.4670    7.2163 C   0  0  0  0  0  0  0  0  0  0  0  0
   -1.6825   28.4862    8.3686 C   0  0  0  0  0  0  0  0  0  0  0  0
   -5.0904   30.5689    7.5895 C   0  0  0  0  0  0  0  0  0  0  0  0
   -5.3506   31.8385    8.0334 C   0  0  0  0  0  0  0  0  0  0  0  0
   -4.3609   32.4069    8.7952 C   0  0  0  0  0  0  0  0  0  0  0  0
   -4.5226   33.7936    9.3385 C   0  0  0  0  0  0  0  0  0  0  0  0
   -3.2148   31.7572    9.0851 N   0  0  0  0  0  0  0  0  0  0  0  0
   -3.0390   30.5115    8.6136 C   0  0  0  0  0  0  0  0  0  0  0  0
   -3.9625   29.8933    7.8629 N   0  0  0  0  0  0  0  0  0  0  0  0
   -5.7888   28.6289    6.4795 C   0  0  0  0  0  0  0  0  0  0  0  0
   -6.0781   29.9809    6.8208 O   0  0  0  0  0  0  0  0  0  0  0  0
   -0.4679   27.0967    6.7090 N   0  0  0  0  0  0  0  0  0  0  0  0
   -0.2709   26.4168    7.4406 H   0  0  0  0  0  0  0  0  0  0  0  0
   -1.3151   26.5523    5.7403 C   0  0  0  0  0  0  0  0  0  0  0  0
   -0.7371   26.0641    4.5574 C   0  0  0  0  0  0  0  0  0  0  0  0
   -1.5184   25.5614    3.5124 C   0  0  0  0  0  0  0  0  0  0  0  0
   -2.9041   25.5605    3.6212 C   0  0  0  0  0  0  0  0  0  0  0  0
   -3.5010   26.0734    4.7682 C   0  0  0  0  0  0  0  0  0  0  0  0
   -2.7117   26.5762    5.8100 C   0  0  0  0  0  0  0  0  0  0  0  0
 14 15  1  0  0  0
 15  7  1  0  0  0
  7  8  2  0  0  0
  8  9  1  0  0  0
  9 10  1  0  0  0
  9 11  2  0  0  0
 11 12  1  0  0  0
 12  1  1  0  0  0
  1  2  1  0  0  0
  2  3  1  0  0  0
  3  4  1  0  0  0
  4  5  1  0  0  0
  5 16  1  0  0  0
 16 18  1  0  0  0
 18 19  2  0  0  0
 19 20  1  0  0  0
 20 21  2  0  0  0
 21 22  1  0  0  0
 22 23  2  0  0  0
  5  6  1  0  0  0
 12 13  2  0  0  0
 13  7  1  0  0  0
  6  1  1  0  0  0
 23 18  1  0  0  0
 16 17  1  0  0  0
M  END
> <minimizedAffinity>
-8.65012

$$$$
OCNT-2310736


 31 34  0  0  0  0  0  0  0  0999 V2000
   -2.5634   26.0635    3.7678 N   0  0  0  0  0  0  0  0  0  0  0  0
   -2.4857   26.2931    5.1245 C   0  0  0  0  0  0  0  0  0  0  0  0
   -3.3682   26.1030    5.9502 O   0  0  0  0  0  0  0  0  0  0  0  0
   -1.2345   26.7654    5.4674 N   0  0  0  0  0  0  0  0  0  0  0  0
   -1.6827   26.0772    3.2759 H   0  0  0  0  0  0  0  0  0  0  0  0
   -0.7451   27.2818    4.7534 H   0  0  0  0  0  0  0  0  0  0  0  0
   -8.0441   22.4576   -0.1327 O   0  0  0  0  0  0  0  0  0  0  0  0
   -7.0631   22.8784    0.4760 C   0  0  0  0  0  0  0  0  0  0  0  0
   -5.8653   22.0002    0.8366 C   0  0  0  0  0  0  0  0  0  0  0  0
   -4.8795   22.4493    1.7536 O   0  0  0  0  0  0  0  0  0  0  0  0
   -4.8643   23.7972    1.9783 C   0  0  0  0  0  0  0  0  0  0  0  0
   -3.7851   24.2855    2.7184 C   0  0  0  0  0  0  0  0  0  0  0  0
   -3.6887   25.6484    3.0278 C   0  0  0  0  0  0  0  0  0  0  0  0
   -4.6902   26.5145    2.5822 C   0  0  0  0  0  0  0  0  0  0  0  0
   -5.7783   26.0276    1.8487 C   0  0  0  0  0  0  0  0  0  0  0  0
   -5.8616   24.6704    1.5481 C   0  0  0  0  0  0  0  0  0  0  0  0
   -6.9568   24.1920    0.8329 N   0  0  0  0  0  0  0  0  0  0  0  0
   -7.7162   24.8036    0.5653 H   0  0  0  0  0  0  0  0  0  0  0  0
   -0.9349   27.1364    6.8335 C   0  0  0  0  0  0  0  0  0  0  0  0
   -1.6233   28.4232    7.2107 C   0  0  0  0  0  0  0  0  0  0  0  0
   -2.6696   28.4254    8.1398 C   0  0  0  0  0  0  0  0  0  0  0  0
   -3.3306   29.6137    8.4767 C   0  0  0  0  0  0  0  0  0  0  0  0
   -2.9610   30.8322    7.8846 C   0  0  0  0  0  0  0  0  0  0  0  0
   -1.9190   30.8191    6.9504 C   0  0  0  0  0  0  0  0  0  0  0  0
   -1.5043   31.9306    6.3292 F   0  0  0  0  0  0  0  0  0  0  0  0
   -1.2599   29.6339    6.6140 C   0  0  0  0  0  0  0  0  0  0  0  0
   -3.6402   32.0362    8.2341 N   0  0  0  0  0  0  0  0  0  0  0  0
   -4.5664   32.7192    7.4680 C   0  0  0  0  0  0  0  0  0  0  0  0
   -4.9488   33.8156    8.2025 C   0  0  0  0  0  0  0  0  0  0  0  0
   -4.2984   33.8441    9.3980 N   0  0  0  0  0  0  0  0  0  0  0  0
   -3.5285   32.7767    9.3936 C   0  0  0  0  0  0  0  0  0  0  0  0
  7  8  2  0  0  0
  8  9  1  0  0  0
  9 10  1  0  0  0
 10 11  1  0  0  0
 11 12  1  0  0  0
 12 13  2  0  0  0
 13  1  1  0  0  0
  1  2  1  0  0  0
  2  3  2  0  0  0
  2  4  1  0  0  0
  4 19  1  0  0  0
 19 20  1  0  0  0
 20 21  1  0  0  0
 21 22  2  0  0  0
 22 23  1  0  0  0
 23 27  1  0  0  0
 27 28  1  0  0  0
 28 29  2  0  0  0
 29 30  1  0  0  0
 30 31  2  0  0  0
 23 24  2  0  0  0
 24 25  1  0  0  0
 24 26  1  0  0  0
 13 14  1  0  0  0
 14 15  2  0  0  0
 15 16  1  0  0  0
 16 17  1  0  0  0
 17  8  1  0  0  0
 16 11  2  0  0  0
 26 20  2  0  0  0
 31 27  1  0  0  0
  1  5  1  0  0  0
  4  6  1  0  0  0
 17 18  1  0  0  0
M  END
> <minimizedAffinity>
-9.36268

$$$$
OCNT-2310740


 30 32  0  0  0  0  0  0  0  0999 V2000
   -3.1530   27.3128    6.2455 N   0  0  0  0  0  0  0  0  0  0  0  0
   -4.2160   27.3216    5.3660 C   0  0  0  0  0  0  0  0  0  0  0  0
   -4.9332   28.3036    5.2032 O   0  0  0  0  0  0  0  0  0  0  0  0
   -2.4499   26.5950    6.1014 H   0  0  0  0  0  0  0  0  0  0  0  0
   -4.4586   25.9919    4.6847 C   0  0  0  0  0  0  0  0  0  0  0  0
   -3.2414   25.4476    3.9453 C   0  0  0  0  0  0  0  0  0  0  0  0
   -3.8422   24.4570    2.9501 C   0  0  0  0  0  0  0  0  0  0  0  0
   -5.1788   24.9815    2.6839 N   0  0  0  0  0  0  0  0  0  0  0  0
   -5.4993   26.1013    3.5692 C   0  0  0  0  0  0  0  0  0  0  0  0
   -5.9695   24.5560    1.6370 C   0  0  0  0  0  0  0  0  0  0  0  0
   -6.0769   25.3075    0.4529 C   0  0  0  0  0  0  0  0  0  0  0  0
   -6.8760   24.8977   -0.6246 C   0  0  0  0  0  0  0  0  0  0  0  0
   -7.6013   23.7148   -0.5491 C   0  0  0  0  0  0  0  0  0  0  0  0
   -7.5257   22.9467    0.6054 C   0  0  0  0  0  0  0  0  0  0  0  0
   -6.7256   23.3652    1.6725 C   0  0  0  0  0  0  0  0  0  0  0  0
   -6.7153   22.5802    2.7632 F   0  0  0  0  0  0  0  0  0  0  0  0
   -2.6298   28.5686    6.7926 C   0  0  0  0  0  0  0  0  0  0  0  0
   -0.6011   27.1591    6.7677 N   0  0  0  0  0  0  0  0  0  0  0  0
   -1.0964   28.4287    6.7915 C   0  0  0  0  0  0  0  0  0  0  0  0
   -0.3373   29.3969    6.7648 O   0  0  0  0  0  0  0  0  0  0  0  0
   -1.1868   26.3402    6.8734 H   0  0  0  0  0  0  0  0  0  0  0  0
    0.4028   27.0407    6.8097 H   0  0  0  0  0  0  0  0  0  0  0  0
   -3.1547   28.7930    8.2169 C   0  0  0  0  0  0  0  0  0  0  0  0
   -3.5414   30.2269    8.5007 C   0  0  0  0  0  0  0  0  0  0  0  0
   -2.6767   31.0705    9.2121 C   0  0  0  0  0  0  0  0  0  0  0  0
   -3.0301   32.3989    9.4594 C   0  0  0  0  0  0  0  0  0  0  0  0
   -4.2500   32.8889    8.9987 C   0  0  0  0  0  0  0  0  0  0  0  0
   -4.6826   34.5261    9.3008 Cl  0  0  0  0  0  0  0  0  0  0  0  0
   -5.1204   32.0614    8.2932 C   0  0  0  0  0  0  0  0  0  0  0  0
   -4.7678   30.7331    8.0454 C   0  0  0  0  0  0  0  0  0  0  0  0
 18 19  1  0  0  0
 19 20  2  0  0  0
 19 17  1  0  0  0
 17 23  1  0  0  0
 23 24  1  0  0  0
 24 25  1  0  0  0
 25 26  2  0  0  0
 26 27  1  0  0  0
 27 28  1  0  0  0
 27 29  2  0  0  0
 29 30  1  0  0  0
 17  1  1  0  0  0
  1  2  1  0  0  0
  2  3  2  0  0  0
  2  5  1  0  0  0
  5  6  1  0  0  0
  6  7  1  0  0  0
  7  8  1  0  0  0
  8 10  1  0  0  0
 10 11  2  0  0  0
 11 12  1  0  0  0
 12 13  2  0  0  0
 13 14  1  0  0  0
 14 15  2  0  0  0
 15 16  1  0  0  0
  8  9  1  0  0  0
 30 24  2  0  0  0
  9  5  1  0  0  0
 15 10  1  0  0  0
 18 21  1  0  0  0
 18 22  1  0  0  0
  1  4  1  0  0  0
M  END
> <minimizedAffinity>
-9.94787

$$$$
OCNT-2310757


 25 28  0  0  0  0  0  0  0  0999 V2000
   -3.1877   25.6629    3.7449 C   0  0  0  0  0  0  0  0  0  0  0  0
   -4.2806   25.7937    4.8035 C   0  0  0  0  0  0  0  0  0  0  0  0
   -4.1379   27.1162    5.5546 C   0  0  0  0  0  0  0  0  0  0  0  0
   -2.7246   27.4694    5.7712 N   0  0  0  0  0  0  0  0  0  0  0  0
   -1.7898   26.3426    5.7771 C   0  0  0  0  0  0  0  0  0  0  0  0
   -1.8027   25.6559    4.4112 C   0  0  0  0  0  0  0  0  0  0  0  0
   -2.5647   28.3383    6.8689 C   0  0  0  0  0  0  0  0  0  0  0  0
   -3.6582   28.7844    7.5468 N   0  0  0  0  0  0  0  0  0  0  0  0
   -3.5148   29.6341    8.5887 C   0  0  0  0  0  0  0  0  0  0  0  0
   -4.7721   30.0561    9.2860 C   0  0  0  0  0  0  0  0  0  0  0  0
   -2.3582   30.1082    9.0851 N   0  0  0  0  0  0  0  0  0  0  0  0
   -1.2988   29.6348    8.4177 C   0  0  0  0  0  0  0  0  0  0  0  0
   -1.3049   28.7707    7.3347 C   0  0  0  0  0  0  0  0  0  0  0  0
    0.0630   28.5370    7.0033 C   0  0  0  0  0  0  0  0  0  0  0  0
    0.8436   29.2761    7.8677 C   0  0  0  0  0  0  0  0  0  0  0  0
   -0.0001   29.9397    8.7202 N   0  0  0  0  0  0  0  0  0  0  0  0
    0.2688   30.5528    9.4758 H   0  0  0  0  0  0  0  0  0  0  0  0
   -3.3198   24.4291    3.0313 O   0  0  0  0  0  0  0  0  0  0  0  0
   -7.7845   23.9054   -0.2556 C   0  0  0  0  0  0  0  0  0  0  0  0
   -6.6047   24.0731    0.6371 C   0  0  0  0  0  0  0  0  0  0  0  0
   -6.1321   23.0569    1.4403 C   0  0  0  0  0  0  0  0  0  0  0  0
   -5.0489   23.1685    2.2313 N   0  0  0  0  0  0  0  0  0  0  0  0
   -4.4114   24.3467    2.1961 C   0  0  0  0  0  0  0  0  0  0  0  0
   -4.7728   25.4034    1.4500 N   0  0  0  0  0  0  0  0  0  0  0  0
   -5.8630   25.2349    0.6776 C   0  0  0  0  0  0  0  0  0  0  0  0
 19 20  1  0  0  0
 20 21  2  0  0  0
 21 22  1  0  0  0
 22 23  2  0  0  0
 23 18  1  0  0  0
 18  1  1  0  0  0
  1  2  1  0  0  0
  2  3  1  0  0  0
  3  4  1  0  0  0
  4  7  1  0  0  0
  7  8  1  0  0  0
  8  9  2  0  0  0
  9 10  1  0  0  0
  9 11  1  0  0  0
 11 12  2  0  0  0
 12 13  1  0  0  0
 13 14  1  0  0  0
 14 15  2  0  0  0
 15 16  1  0  0  0
  4  5  1  0  0  0
  5  6  1  0  0  0
 23 24  1  0  0  0
 24 25  2  0  0  0
 25 20  1  0  0  0
  6  1  1  0  0  0
 13  7  2  0  0  0
 16 12  1  0  0  0
 16 17  1  0  0  0
M  END
> <minimizedAffinity>
-9.21182

$$$$
OCNT-2310758


 22 24  0  0  0  0  0  0  0  0999 V2000
   -2.9143   26.6550    5.2038 N   0  0  0  0  0  0  0  0  0  0  0  0
   -3.7655   25.5550    5.7037 C   0  0  0  0  0  0  0  0  0  0  0  0
   -4.8000   25.0897    4.6548 C   0  0  0  0  0  0  0  0  0  0  0  0
   -4.1337   24.7531    3.3775 N   0  0  0  0  0  0  0  0  0  0  0  0
   -3.4185   25.9370    2.8486 C   0  0  0  0  0  0  0  0  0  0  0  0
   -2.3501   26.4032    3.8561 C   0  0  0  0  0  0  0  0  0  0  0  0
   -2.4821   30.6269    8.3085 C   0  0  0  0  0  0  0  0  0  0  0  0
   -1.9759   29.4905    7.5630 N   0  0  0  0  0  0  0  0  0  0  0  0
   -0.6520   29.1438    7.6724 C   0  0  0  0  0  0  0  0  0  0  0  0
   -0.1736   28.0676    7.0441 C   0  0  0  0  0  0  0  0  0  0  0  0
   -0.9005   27.2385    6.2385 N   0  0  0  0  0  0  0  0  0  0  0  0
   -2.1801   27.4852    6.0680 C   0  0  0  0  0  0  0  0  0  0  0  0
   -2.8553   28.6921    6.8324 C   0  0  0  0  0  0  0  0  0  0  0  0
   -4.0659   28.8751    6.7914 O   0  0  0  0  0  0  0  0  0  0  0  0
   -5.0246   24.2328    2.4135 C   0  0  0  0  0  0  0  0  0  0  0  0
   -5.6407   25.0964    1.5671 N   0  0  0  0  0  0  0  0  0  0  0  0
   -6.4881   24.5898    0.6377 C   0  0  0  0  0  0  0  0  0  0  0  0
   -6.7673   23.2417    0.5016 C   0  0  0  0  0  0  0  0  0  0  0  0
   -7.8531   22.6828   -0.7031 Cl  0  0  0  0  0  0  0  0  0  0  0  0
   -6.1520   22.3517    1.3673 C   0  0  0  0  0  0  0  0  0  0  0  0
   -5.2751   22.8459    2.3350 C   0  0  0  0  0  0  0  0  0  0  0  0
   -4.5685   21.7082    3.4315 Cl  0  0  0  0  0  0  0  0  0  0  0  0
  7  8  1  0  0  0
  8  9  1  0  0  0
  9 10  2  0  0  0
 10 11  1  0  0  0
 11 12  2  0  0  0
 12  1  1  0  0  0
  1  2  1  0  0  0
  2  3  1  0  0  0
  3  4  1  0  0  0
  4 15  1  0  0  0
 15 16  1  0  0  0
 16 17  2  0  0  0
 17 18  1  0  0  0
 18 19  1  0  0  0
 18 20  2  0  0  0
 20 21  1  0  0  0
 21 22  1  0  0  0
  4  5  1  0  0  0
  5  6  1  0  0  0
 12 13  1  0  0  0
 13 14  2  0  0  0
 13  8  1  0  0  0
  6  1  1  0  0  0
 21 15  2  0  0  0
M  END
> <minimizedAffinity>
-7.97264

$$$$
OCNT-2310760


 28 30  0  0  0  0  0  0  0  0999 V2000
   -4.8536   25.9035    3.5059 C   0  0  0  0  0  0  0  0  0  0  0  0
   -5.0417   27.0346    3.0656 O   0  0  0  0  0  0  0  0  0  0  0  0
   -3.8128   25.5967    4.3567 N   0  0  0  0  0  0  0  0  0  0  0  0
   -3.8012   24.6919    4.8087 H   0  0  0  0  0  0  0  0  0  0  0  0
   -2.8907   26.6211    4.8325 C   0  0  0  0  0  0  0  0  0  0  0  0
   -1.5361   26.0093    5.1882 C   0  0  0  0  0  0  0  0  0  0  0  0
   -0.5562   27.0988    5.6170 C   0  0  0  0  0  0  0  0  0  0  0  0
   -1.1786   28.1416    6.4274 N   0  0  0  0  0  0  0  0  0  0  0  0
   -0.3676   29.2101    6.8091 C   0  0  0  0  0  0  0  0  0  0  0  0
    0.8338   29.2662    6.5575 O   0  0  0  0  0  0  0  0  0  0  0  0
   -2.4481   27.7946    7.0596 C   0  0  0  0  0  0  0  0  0  0  0  0
   -3.4910   27.4008    6.0174 C   0  0  0  0  0  0  0  0  0  0  0  0
   -0.9693   30.3494    7.5305 C   0  0  0  0  0  0  0  0  0  0  0  0
   -1.8321   31.1994    6.8442 C   0  0  0  0  0  0  0  0  0  0  0  0
   -2.3998   32.2398    7.5535 C   0  0  0  0  0  0  0  0  0  0  0  0
   -2.1702   32.4652    8.8665 N   0  0  0  0  0  0  0  0  0  0  0  0
   -1.3558   31.5996    9.5094 C   0  0  0  0  0  0  0  0  0  0  0  0
   -0.7381   30.5281    8.8934 C   0  0  0  0  0  0  0  0  0  0  0  0
   -5.7915   24.7500    3.1715 C   0  0  0  0  0  0  0  0  0  0  0  0
   -5.9078   24.5568    1.6588 C   0  0  0  0  0  0  0  0  0  0  0  0
   -5.3242   23.4841    3.9059 C   0  0  0  0  0  0  0  0  0  0  0  0
   -8.8088   21.9506    8.3173 C   0  0  0  0  0  0  0  0  0  0  0  0
   -7.9172   22.3230    7.1703 C   0  0  0  0  0  0  0  0  0  0  0  0
   -8.4022   23.1156    6.1246 C   0  0  0  0  0  0  0  0  0  0  0  0
   -7.5646   23.4895    5.0712 C   0  0  0  0  0  0  0  0  0  0  0  0
   -6.2238   23.0856    5.0504 C   0  0  0  0  0  0  0  0  0  0  0  0
   -5.7355   22.3049    6.1052 C   0  0  0  0  0  0  0  0  0  0  0  0
   -6.5740   21.9316    7.1585 C   0  0  0  0  0  0  0  0  0  0  0  0
 22 23  1  0  0  0
 23 24  1  0  0  0
 24 25  2  0  0  0
 25 26  1  0  0  0
 26 21  1  0  0  0
 21 19  1  0  0  0
 19 20  1  0  0  0
 19  1  1  0  0  0
  1  2  2  0  0  0
  1  3  1  0  0  0
  3  5  1  0  0  0
  5  6  1  0  0  0
  6  7  1  0  0  0
  7  8  1  0  0  0
  8  9  1  0  0  0
  9 10  2  0  0  0
  9 13  1  0  0  0
 13 14  2  0  0  0
 14 15  1  0  0  0
 15 16  2  0  0  0
 16 17  1  0  0  0
 17 18  2  0  0  0
  8 11  1  0  0  0
 11 12  1  0  0  0
 26 27  2  0  0  0
 27 28  1  0  0  0
 28 23  2  0  0  0
 12  5  1  0  0  0
 18 13  1  0  0  0
  3  4  1  0  0  0
M  END
> <minimizedAffinity>
-9.87629

$$$$
OCNT-2310785


 25 28  0  0  0  0  0  0  0  0999 V2000
   -5.4687   26.4084    5.0835 O   0  0  0  0  0  0  0  0  0  0  0  0
   -4.3063   26.2507    4.7385 C   0  0  0  0  0  0  0  0  0  0  0  0
   -3.8645   25.5212    3.6399 N   0  0  0  0  0  0  0  0  0  0  0  0
   -2.8651   25.5171    3.4783 H   0  0  0  0  0  0  0  0  0  0  0  0
   -4.6447   24.8291    2.6858 C   0  0  0  0  0  0  0  0  0  0  0  0
   -5.3283   25.4879    1.6375 C   0  0  0  0  0  0  0  0  0  0  0  0
   -6.0568   24.6304    0.7907 C   0  0  0  0  0  0  0  0  0  0  0  0
   -6.8121   24.9107   -0.2892 N   0  0  0  0  0  0  0  0  0  0  0  0
   -7.2796   23.7172   -0.7026 N   0  0  0  0  0  0  0  0  0  0  0  0
   -6.8638   22.6559    0.0505 C   0  0  0  0  0  0  0  0  0  0  0  0
   -6.0713   23.2083    1.0182 C   0  0  0  0  0  0  0  0  0  0  0  0
   -5.4191   22.5118    2.0259 C   0  0  0  0  0  0  0  0  0  0  0  0
   -4.6951   23.3977    2.8555 C   0  0  0  0  0  0  0  0  0  0  0  0
   -7.8872   23.7063   -1.5149 H   0  0  0  0  0  0  0  0  0  0  0  0
   -3.2016   26.8568    5.5034 C   0  0  0  0  0  0  0  0  0  0  0  0
   -1.8836   26.4116    5.4971 C   0  0  0  0  0  0  0  0  0  0  0  0
   -0.9115   27.3937    6.5098 S   0  0  0  0  0  0  0  0  0  0  0  0
   -2.3028   28.3220    6.9422 C   0  0  0  0  0  0  0  0  0  0  0  0
   -3.4242   27.9335    6.3578 N   0  0  0  0  0  0  0  0  0  0  0  0
   -2.2055   29.4301    7.9074 C   0  0  0  0  0  0  0  0  0  0  0  0
   -0.9696   30.0105    8.1840 C   0  0  0  0  0  0  0  0  0  0  0  0
   -0.9037   31.0346    9.1251 C   0  0  0  0  0  0  0  0  0  0  0  0
   -2.0643   31.4394    9.7731 C   0  0  0  0  0  0  0  0  0  0  0  0
   -3.2527   30.8032    9.4501 C   0  0  0  0  0  0  0  0  0  0  0  0
   -3.3501   29.8148    8.5340 N   0  0  0  0  0  0  0  0  0  0  0  0
  1  2  2  0  0  0
  2  3  1  0  0  0
  3  5  1  0  0  0
  5  6  2  0  0  0
  6  7  1  0  0  0
  7  8  2  0  0  0
  8  9  1  0  0  0
  9 10  1  0  0  0
 10 11  2  0  0  0
 11 12  1  0  0  0
 12 13  2  0  0  0
  2 15  1  0  0  0
 15 16  2  0  0  0
 16 17  1  0  0  0
 17 18  1  0  0  0
 18 20  1  0  0  0
 20 21  2  0  0  0
 21 22  1  0  0  0
 22 23  2  0  0  0
 23 24  1  0  0  0
 24 25  2  0  0  0
 18 19  2  0  0  0
 13  5  1  0  0  0
 19 15  1  0  0  0
 11  7  1  0  0  0
 25 20  1  0  0  0
  3  4  1  0  0  0
  9 14  1  0  0  0
M  END
> <minimizedAffinity>
-9.32488

$$$$
OCNT-2310796


 23 25  0  0  0  0  0  0  0  0999 V2000
   -5.6878   28.4182    6.6283 O   0  0  0  0  0  0  0  0  0  0  0  0
   -4.7166   28.2560    5.8943 C   0  0  0  0  0  0  0  0  0  0  0  0
   -3.5211   28.9378    6.0395 N   0  0  0  0  0  0  0  0  0  0  0  0
   -2.7885   28.6892    5.3759 H   0  0  0  0  0  0  0  0  0  0  0  0
   -4.7569   27.3061    4.7825 C   0  0  0  0  0  0  0  0  0  0  0  0
   -4.0044   26.1527    4.6595 C   0  0  0  0  0  0  0  0  0  0  0  0
   -4.2698   25.4257    3.4544 C   0  0  0  0  0  0  0  0  0  0  0  0
   -5.2314   26.0650    2.6942 C   0  0  0  0  0  0  0  0  0  0  0  0
   -5.7865   25.6309    1.3710 C   0  0  0  0  0  0  0  0  0  0  0  0
   -6.3787   24.2216    1.4266 C   0  0  0  0  0  0  0  0  0  0  0  0
   -5.3357   23.1016    1.4931 C   0  0  0  0  0  0  0  0  0  0  0  0
   -4.5745   22.9975    2.8182 C   0  0  0  0  0  0  0  0  0  0  0  0
   -3.5942   24.1436    3.0706 C   0  0  0  0  0  0  0  0  0  0  0  0
   -5.7865   27.5022    3.4316 S   0  0  0  0  0  0  0  0  0  0  0  0
   -3.1718   29.8952    7.0190 C   0  0  0  0  0  0  0  0  0  0  0  0
   -3.7177   31.1768    7.0876 C   0  0  0  0  0  0  0  0  0  0  0  0
   -3.3989   32.0987    8.0327 N   0  0  0  0  0  0  0  0  0  0  0  0
   -2.4872   31.7374    8.9524 C   0  0  0  0  0  0  0  0  0  0  0  0
   -1.8781   30.4949    8.9762 C   0  0  0  0  0  0  0  0  0  0  0  0
   -2.2232   29.5454    8.0017 C   0  0  0  0  0  0  0  0  0  0  0  0
   -1.5071   28.2192    8.0095 C   0  0  0  0  0  0  0  0  0  0  0  0
   -2.4115   27.1586    8.2965 O   0  0  0  0  0  0  0  0  0  0  0  0
   -2.8461   27.3839    9.1396 H   0  0  0  0  0  0  0  0  0  0  0  0
  1  2  2  0  0  0
  2  3  1  0  0  0
  3 15  1  0  0  0
 15 16  2  0  0  0
 16 17  1  0  0  0
 17 18  2  0  0  0
 18 19  1  0  0  0
 19 20  2  0  0  0
 20 21  1  0  0  0
 21 22  1  0  0  0
  2  5  1  0  0  0
  5  6  2  0  0  0
  6  7  1  0  0  0
  7  8  2  0  0  0
  8  9  1  0  0  0
  9 10  1  0  0  0
 10 11  1  0  0  0
 11 12  1  0  0  0
 12 13  1  0  0  0
  8 14  1  0  0  0
 20 15  1  0  0  0
 14  5  1  0  0  0
 13  7  1  0  0  0
  3  4  1  0  0  0
 22 23  1  0  0  0
M  END
> <minimizedAffinity>
-8.47725

$$$$
OCNT-2310804


 28 31  0  0  0  0  0  0  0  0999 V2000
   -4.6444   30.5458    5.8210 O   0  0  0  0  0  0  0  0  0  0  0  0
   -4.6363   29.6704    6.6886 C   0  0  0  0  0  0  0  0  0  0  0  0
   -4.7912   28.3082    6.4601 N   0  0  0  0  0  0  0  0  0  0  0  0
   -4.6851   27.6765    7.2457 H   0  0  0  0  0  0  0  0  0  0  0  0
   -4.4538   30.0257    8.2109 C   0  0  0  0  0  0  0  0  0  0  0  0
   -5.1501   28.9074    9.0292 C   0  0  0  0  0  0  0  0  0  0  0  0
   -6.1169   29.6401    9.9441 C   0  0  0  0  0  0  0  0  0  0  0  0
   -6.5024   30.8437    9.1155 C   0  0  0  0  0  0  0  0  0  0  0  0
   -5.2333   31.2589    8.5282 N   0  0  0  0  0  0  0  0  0  0  0  0
   -5.4009   31.7650    7.6536 H   0  0  0  0  0  0  0  0  0  0  0  0
   -2.9833   30.2946    8.5615 C   0  0  0  0  0  0  0  0  0  0  0  0
   -2.5497   31.5331    9.0669 C   0  0  0  0  0  0  0  0  0  0  0  0
   -1.2049   31.7595    9.3763 C   0  0  0  0  0  0  0  0  0  0  0  0
   -0.2602   30.7603    9.1660 C   0  0  0  0  0  0  0  0  0  0  0  0
   -0.6559   29.5405    8.6283 C   0  0  0  0  0  0  0  0  0  0  0  0
   -1.9995   29.3146    8.3178 C   0  0  0  0  0  0  0  0  0  0  0  0
   -4.9790   27.7224    5.2229 C   0  0  0  0  0  0  0  0  0  0  0  0
   -4.1717   26.8315    4.5605 C   0  0  0  0  0  0  0  0  0  0  0  0
   -4.8017   26.5392    3.3830 N   0  0  0  0  0  0  0  0  0  0  0  0
   -5.9603   27.2148    3.2168 N   0  0  0  0  0  0  0  0  0  0  0  0
   -6.0698   27.9202    4.3461 C   0  0  0  0  0  0  0  0  0  0  0  0
   -4.3200   25.6416    2.3425 C   0  0  0  0  0  0  0  0  0  0  0  0
   -5.4542   24.9031    1.6812 C   0  0  0  0  0  0  0  0  0  0  0  0
   -5.8622   25.2209    0.3821 C   0  0  0  0  0  0  0  0  0  0  0  0
   -6.9082   24.5044   -0.1798 C   0  0  0  0  0  0  0  0  0  0  0  0
   -7.5637   23.5093    0.4536 N   0  0  0  0  0  0  0  0  0  0  0  0
   -7.1493   23.2095    1.7028 C   0  0  0  0  0  0  0  0  0  0  0  0
   -6.1156   23.8673    2.3500 C   0  0  0  0  0  0  0  0  0  0  0  0
  1  2  2  0  0  0
  2  3  1  0  0  0
  3 17  1  0  0  0
 17 18  2  0  0  0
 18 19  1  0  0  0
 19 22  1  0  0  0
 22 23  1  0  0  0
 23 24  2  0  0  0
 24 25  1  0  0  0
 25 26  2  0  0  0
 26 27  1  0  0  0
 27 28  2  0  0  0
 19 20  1  0  0  0
 20 21  2  0  0  0
  2  5  1  0  0  0
  5 11  1  0  0  0
 11 12  2  0  0  0
 12 13  1  0  0  0
 13 14  2  0  0  0
 14 15  1  0  0  0
 15 16  2  0  0  0
  5  6  1  0  0  0
  6  7  1  0  0  0
  7  8  1  0  0  0
  8  9  1  0  0  0
 21 17  1  0  0  0
  9  5  1  0  0  0
 28 23  1  0  0  0
 16 11  1  0  0  0
  3  4  1  0  0  0
  9 10  1  0  0  0
M  END
> <minimizedAffinity>
-9.53171

$$$$
OCNT-2310816


 22 24  0  0  0  0  0  0  0  0999 V2000
   -6.0331   28.7705    5.6776 C   0  0  0  0  0  0  0  0  0  0  0  0
   -7.2271   29.6408    6.0721 C   0  0  0  0  0  0  0  0  0  0  0  0
   -6.7646   30.3005    7.3685 C   0  0  0  0  0  0  0  0  0  0  0  0
   -5.3371   30.4748    7.1722 N   0  0  0  0  0  0  0  0  0  0  0  0
   -4.8301   29.6580    6.0721 C   0  0  0  0  0  0  0  0  0  0  0  0
   -4.4776   31.0809    8.0526 C   0  0  0  0  0  0  0  0  0  0  0  0
   -3.4823   30.3160    8.5702 N   0  0  0  0  0  0  0  0  0  0  0  0
   -2.6030   30.8794    9.4313 C   0  0  0  0  0  0  0  0  0  0  0  0
   -2.6502   32.2020    9.8287 C   0  0  0  0  0  0  0  0  0  0  0  0
   -3.6623   32.9933    9.3089 C   0  0  0  0  0  0  0  0  0  0  0  0
   -4.5749   32.4312    8.4196 C   0  0  0  0  0  0  0  0  0  0  0  0
   -5.5469   33.2230    7.9382 F   0  0  0  0  0  0  0  0  0  0  0  0
   -6.0212   28.4419    4.2484 N   0  0  0  0  0  0  0  0  0  0  0  0
   -6.8664   28.7725    3.7801 H   0  0  0  0  0  0  0  0  0  0  0  0
   -6.0595   23.6689    5.4622 C   0  0  0  0  0  0  0  0  0  0  0  0
   -5.9709   24.7941    4.4766 C   0  0  0  0  0  0  0  0  0  0  0  0
   -6.0514   26.1033    4.9055 C   0  0  0  0  0  0  0  0  0  0  0  0
   -5.9595   27.0830    3.9398 C   0  0  0  0  0  0  0  0  0  0  0  0
   -5.7763   26.7957    2.6449 N   0  0  0  0  0  0  0  0  0  0  0  0
   -5.6978   25.4943    2.3132 C   0  0  0  0  0  0  0  0  0  0  0  0
   -5.5262   25.1589    0.8651 C   0  0  0  0  0  0  0  0  0  0  0  0
   -5.8059   24.4718    3.1800 N   0  0  0  0  0  0  0  0  0  0  0  0
 15 16  1  0  0  0
 16 17  1  0  0  0
 17 18  2  0  0  0
 18 13  1  0  0  0
 13  1  1  0  0  0
  1  2  1  0  0  0
  2  3  1  0  0  0
  3  4  1  0  0  0
  4  6  1  0  0  0
  6  7  1  0  0  0
  7  8  2  0  0  0
  8  9  1  0  0  0
  9 10  2  0  0  0
 10 11  1  0  0  0
 11 12  1  0  0  0
  4  5  1  0  0  0
 18 19  1  0  0  0
 19 20  2  0  0  0
 20 21  1  0  0  0
 20 22  1  0  0  0
 22 16  2  0  0  0
  5  1  1  0  0  0
 11  6  2  0  0  0
 13 14  1  0  0  0
M  END
> <minimizedAffinity>
-8.38713

$$$$
OCNT-2310826


 25 28  0  0  0  0  0  0  0  0999 V2000
    0.1279   28.7449    6.3199 O   0  0  0  0  0  0  0  0  0  0  0  0
   -1.0901   28.6803    6.4921 C   0  0  0  0  0  0  0  0  0  0  0  0
   -1.8267   27.6191    5.9744 N   0  0  0  0  0  0  0  0  0  0  0  0
   -1.1170   26.3882    5.6200 C   0  0  0  0  0  0  0  0  0  0  0  0
   -1.6683   25.7305    4.3415 C   0  0  0  0  0  0  0  0  0  0  0  0
   -3.1256   25.5126    4.4284 N   0  0  0  0  0  0  0  0  0  0  0  0
   -3.7955   26.8076    4.6585 C   0  0  0  0  0  0  0  0  0  0  0  0
   -3.2876   27.5203    5.9300 C   0  0  0  0  0  0  0  0  0  0  0  0
   -1.7590   29.7420    7.2199 C   0  0  0  0  0  0  0  0  0  0  0  0
   -1.5964   30.2699    8.4902 C   0  0  0  0  0  0  0  0  0  0  0  0
   -2.5212   31.3375    8.6609 C   0  0  0  0  0  0  0  0  0  0  0  0
   -2.8334   32.2139    9.7148 C   0  0  0  0  0  0  0  0  0  0  0  0
   -2.1931   32.1211   10.8893 F   0  0  0  0  0  0  0  0  0  0  0  0
   -3.8181   33.1885    9.5491 C   0  0  0  0  0  0  0  0  0  0  0  0
   -4.4939   33.3021    8.3356 C   0  0  0  0  0  0  0  0  0  0  0  0
   -4.2016   32.4482    7.2646 C   0  0  0  0  0  0  0  0  0  0  0  0
   -3.2118   31.4759    7.4588 C   0  0  0  0  0  0  0  0  0  0  0  0
   -2.7101   30.5283    6.6002 N   0  0  0  0  0  0  0  0  0  0  0  0
   -2.9877   30.4064    5.6348 H   0  0  0  0  0  0  0  0  0  0  0  0
   -3.7147   24.7625    3.2989 C   0  0  0  0  0  0  0  0  0  0  0  0
   -4.8537   23.7903    3.6570 C   0  0  0  0  0  0  0  0  0  0  0  0
   -5.5574   23.3426    2.3836 C   0  0  0  0  0  0  0  0  0  0  0  0
   -6.1616   24.4163    1.6634 O   0  0  0  0  0  0  0  0  0  0  0  0
   -5.6242   25.7108    1.9296 C   0  0  0  0  0  0  0  0  0  0  0  0
   -4.1173   25.6868    2.1300 C   0  0  0  0  0  0  0  0  0  0  0  0
  1  2  2  0  0  0
  2  9  1  0  0  0
  9 10  2  0  0  0
 10 11  1  0  0  0
 11 12  2  0  0  0
 12 13  1  0  0  0
 12 14  1  0  0  0
 14 15  2  0  0  0
 15 16  1  0  0  0
 16 17  2  0  0  0
 17 18  1  0  0  0
  2  3  1  0  0  0
  3  4  1  0  0  0
  4  5  1  0  0  0
  5  6  1  0  0  0
  6 20  1  0  0  0
 20 21  1  0  0  0
 21 22  1  0  0  0
 22 23  1  0  0  0
 23 24  1  0  0  0
 24 25  1  0  0  0
  6  7  1  0  0  0
  7  8  1  0  0  0
 18  9  1  0  0  0
  8  3  1  0  0  0
 17 11  1  0  0  0
 25 20  1  0  0  0
 18 19  1  0  0  0
M  END
> <minimizedAffinity>
-9.42691

$$$$
OCNT-2310827


 26 29  0  0  0  0  0  0  0  0999 V2000
   -6.4218   29.8411    4.3945 O   0  0  0  0  0  0  0  0  0  0  0  0
   -5.7295   28.9379    4.8513 C   0  0  0  0  0  0  0  0  0  0  0  0
   -4.8486   29.1065    5.8992 N   0  0  0  0  0  0  0  0  0  0  0  0
   -4.4083   28.2715    6.2772 H   0  0  0  0  0  0  0  0  0  0  0  0
   -4.7502   30.3532    6.6364 C   0  0  0  0  0  0  0  0  0  0  0  0
   -5.9231   30.4805    7.6080 C   0  0  0  0  0  0  0  0  0  0  0  0
   -5.6509   31.6366    8.5493 C   0  0  0  0  0  0  0  0  0  0  0  0
   -4.5042   31.3884    9.3664 O   0  0  0  0  0  0  0  0  0  0  0  0
   -3.3946   30.9764    8.6777 C   0  0  0  0  0  0  0  0  0  0  0  0
   -2.1840   31.0695    9.3704 C   0  0  0  0  0  0  0  0  0  0  0  0
   -0.9942   30.6890    8.7527 C   0  0  0  0  0  0  0  0  0  0  0  0
   -1.0262   30.2179    7.4469 C   0  0  0  0  0  0  0  0  0  0  0  0
    0.1170   29.8637    6.8455 F   0  0  0  0  0  0  0  0  0  0  0  0
   -2.2273   30.1072    6.7531 C   0  0  0  0  0  0  0  0  0  0  0  0
   -3.4366   30.4648    7.3727 C   0  0  0  0  0  0  0  0  0  0  0  0
   -5.8006   27.5567    4.2977 C   0  0  0  0  0  0  0  0  0  0  0  0
   -5.5413   27.3024    2.9668 C   0  0  0  0  0  0  0  0  0  0  0  0
   -5.6312   25.9834    2.5208 C   0  0  0  0  0  0  0  0  0  0  0  0
   -5.9677   24.9596    3.4030 C   0  0  0  0  0  0  0  0  0  0  0  0
   -6.2263   25.2769    4.6951 N   0  0  0  0  0  0  0  0  0  0  0  0
   -6.1391   26.5736    5.1574 N   0  0  0  0  0  0  0  0  0  0  0  0
   -6.0812   23.6518    2.9868 N   0  0  0  0  0  0  0  0  0  0  0  0
   -6.7642   23.2574    1.7595 C   0  0  0  0  0  0  0  0  0  0  0  0
   -6.0404   21.9846    1.3164 C   0  0  0  0  0  0  0  0  0  0  0  0
   -5.4559   21.4345    2.6077 C   0  0  0  0  0  0  0  0  0  0  0  0
   -5.0342   22.7008    3.3459 C   0  0  0  0  0  0  0  0  0  0  0  0
  1  2  2  0  0  0
  2  3  1  0  0  0
  3  5  1  0  0  0
  5  6  1  0  0  0
  6  7  1  0  0  0
  7  8  1  0  0  0
  8  9  1  0  0  0
  9 10  1  0  0  0
 10 11  2  0  0  0
 11 12  1  0  0  0
 12 13  1  0  0  0
 12 14  2  0  0  0
 14 15  1  0  0  0
  2 16  1  0  0  0
 16 17  2  0  0  0
 17 18  1  0  0  0
 18 19  2  0  0  0
 19 22  1  0  0  0
 22 23  1  0  0  0
 23 24  1  0  0  0
 24 25  1  0  0  0
 25 26  1  0  0  0
 19 20  1  0  0  0
 20 21  2  0  0  0
 15  5  1  0  0  0
 21 16  1  0  0  0
 15  9  2  0  0  0
 26 22  1  0  0  0
  3  4  1  0  0  0
M  END
> <minimizedAffinity>
-9.98696

$$$$
OCNT-2310829


 24 26  0  0  0  0  0  0  0  0999 V2000
   -2.3121   25.9441    6.9367 O   0  0  0  0  0  0  0  0  0  0  0  0
   -2.2855   27.0940    6.5192 C   0  0  0  0  0  0  0  0  0  0  0  0
   -2.9085   27.5115    5.3595 N   0  0  0  0  0  0  0  0  0  0  0  0
   -3.0178   28.5075    5.2134 H   0  0  0  0  0  0  0  0  0  0  0  0
   -1.5708   28.1644    7.2652 C   0  0  0  0  0  0  0  0  0  0  0  0
   -0.1722   28.2189    7.1406 C   0  0  0  0  0  0  0  0  0  0  0  0
    0.5527   29.1958    7.8151 C   0  0  0  0  0  0  0  0  0  0  0  0
   -0.1143   30.1198    8.6164 C   0  0  0  0  0  0  0  0  0  0  0  0
   -1.5137   30.0755    8.7560 C   0  0  0  0  0  0  0  0  0  0  0  0
   -2.1978   30.9965    9.5542 C   0  0  0  0  0  0  0  0  0  0  0  0
   -3.5375   31.0206    9.7309 N   0  0  0  0  0  0  0  0  0  0  0  0
   -4.2421   30.0738    9.0838 C   0  0  0  0  0  0  0  0  0  0  0  0
   -3.6701   29.1125    8.2651 C   0  0  0  0  0  0  0  0  0  0  0  0
   -2.2705   29.0907    8.0835 C   0  0  0  0  0  0  0  0  0  0  0  0
   -3.7756   26.6183    4.6001 C   0  0  0  0  0  0  0  0  0  0  0  0
   -3.0087   25.9891    3.4361 C   0  0  0  0  0  0  0  0  0  0  0  0
   -3.9341   25.1323    2.5725 C   0  0  0  0  0  0  0  0  0  0  0  0
   -5.0569   25.9396    2.0795 N   0  0  0  0  0  0  0  0  0  0  0  0
   -5.8621   26.4511    3.1970 C   0  0  0  0  0  0  0  0  0  0  0  0
   -5.0144   27.3587    4.0879 C   0  0  0  0  0  0  0  0  0  0  0  0
   -5.8790   25.2115    1.0822 C   0  0  0  0  0  0  0  0  0  0  0  0
   -6.4184   23.8019    1.3903 C   0  0  0  0  0  0  0  0  0  0  0  0
   -7.6761   23.6455    0.9090 F   0  0  0  0  0  0  0  0  0  0  0  0
   -5.6476   22.8463    0.8168 F   0  0  0  0  0  0  0  0  0  0  0  0
  1  2  2  0  0  0
  2  3  1  0  0  0
  3 15  1  0  0  0
 15 16  1  0  0  0
 16 17  1  0  0  0
 17 18  1  0  0  0
 18 21  1  0  0  0
 21 22  1  0  0  0
 22 23  1  0  0  0
 22 24  1  0  0  0
 18 19  1  0  0  0
 19 20  1  0  0  0
  2  5  1  0  0  0
  5  6  2  0  0  0
  6  7  1  0  0  0
  7  8  2  0  0  0
  8  9  1  0  0  0
  9 10  2  0  0  0
 10 11  1  0  0  0
 11 12  2  0  0  0
 12 13  1  0  0  0
 13 14  2  0  0  0
 20 15  1  0  0  0
 14  5  1  0  0  0
 14  9  1  0  0  0
  3  4  1  0  0  0
M  END
> <minimizedAffinity>
-8.89035

$$$$
OCNT-2310830


 27 29  0  0  0  0  0  0  0  0999 V2000
   -4.7271   25.3212    3.4973 C   0  0  0  0  0  0  0  0  0  0  0  0
   -3.7804   25.8523    2.9227 O   0  0  0  0  0  0  0  0  0  0  0  0
   -5.3930   25.9372    4.5472 N   0  0  0  0  0  0  0  0  0  0  0  0
   -6.2792   25.4927    4.7815 H   0  0  0  0  0  0  0  0  0  0  0  0
   -5.1900   27.3403    4.8798 C   0  0  0  0  0  0  0  0  0  0  0  0
   -6.4659   27.9501    5.4659 C   0  0  0  0  0  0  0  0  0  0  0  0
   -6.2927   29.4323    5.8061 C   0  0  0  0  0  0  0  0  0  0  0  0
   -4.8328   29.8829    5.9220 C   0  0  0  0  0  0  0  0  0  0  0  0
   -4.0421   28.8257    6.5341 N   0  0  0  0  0  0  0  0  0  0  0  0
   -4.0060   27.5264    5.8555 C   0  0  0  0  0  0  0  0  0  0  0  0
   -2.8376   29.1995    7.1212 C   0  0  0  0  0  0  0  0  0  0  0  0
   -2.4661   30.4911    7.0968 N   0  0  0  0  0  0  0  0  0  0  0  0
   -1.3071   30.8262    7.6946 C   0  0  0  0  0  0  0  0  0  0  0  0
   -0.4913   29.9242    8.3245 C   0  0  0  0  0  0  0  0  0  0  0  0
   -0.9418   28.6311    8.3069 C   0  0  0  0  0  0  0  0  0  0  0  0
   -2.0933   28.2518    7.7212 N   0  0  0  0  0  0  0  0  0  0  0  0
   -5.2649   23.8830    3.1961 C   0  0  0  0  0  0  0  0  0  0  0  0
   -5.8963   23.7052    1.8198 C   0  0  0  0  0  0  0  0  0  0  0  0
   -6.0430   22.4119    1.2864 C   0  0  0  0  0  0  0  0  0  0  0  0
   -6.6334   22.2116    0.0367 C   0  0  0  0  0  0  0  0  0  0  0  0
   -7.0867   23.3007   -0.7024 C   0  0  0  0  0  0  0  0  0  0  0  0
   -6.9490   24.5892   -0.1933 C   0  0  0  0  0  0  0  0  0  0  0  0
   -6.3604   24.7902    1.0577 C   0  0  0  0  0  0  0  0  0  0  0  0
   -6.0874   23.4102    4.3558 N   0  0  0  0  0  0  0  0  0  0  0  0
   -5.5385   22.2251    5.0012 C   0  0  0  0  0  0  0  0  0  0  0  0
   -8.2337   22.0081    4.2940 C   0  0  0  0  0  0  0  0  0  0  0  0
   -7.5386   23.3585    4.1331 C   0  0  0  0  0  0  0  0  0  0  0  0
 26 27  1  0  0  0
 27 24  1  0  0  0
 24 25  1  0  0  0
 24 17  1  0  0  0
 17  1  1  0  0  0
  1  2  2  0  0  0
  1  3  1  0  0  0
  3  5  1  0  0  0
  5  6  1  0  0  0
  6  7  1  0  0  0
  7  8  1  0  0  0
  8  9  1  0  0  0
  9 11  1  0  0  0
 11 12  2  0  0  0
 12 13  1  0  0  0
 13 14  2  0  0  0
 14 15  1  0  0  0
 15 16  2  0  0  0
  9 10  1  0  0  0
 17 18  1  0  0  0
 18 19  2  0  0  0
 19 20  1  0  0  0
 20 21  2  0  0  0
 21 22  1  0  0  0
 22 23  2  0  0  0
 10  5  1  0  0  0
 23 18  1  0  0  0
 16 11  1  0  0  0
  3  4  1  0  0  0
M  END
> <minimizedAffinity>
-8.46109

$$$$
OCNT-2310833


 30 33  0  0  0  0  0  0  0  0999 V2000
   -4.7915   26.4941    5.7027 N   0  0  0  0  0  0  0  0  0  0  0  0
   -4.1750   27.7151    5.7168 C   0  0  0  0  0  0  0  0  0  0  0  0
   -4.5900   28.7086    5.1368 O   0  0  0  0  0  0  0  0  0  0  0  0
   -3.0346   27.6812    6.4763 N   0  0  0  0  0  0  0  0  0  0  0  0
   -4.6202   25.9284    6.5201 H   0  0  0  0  0  0  0  0  0  0  0  0
   -2.5182   26.8187    6.3615 H   0  0  0  0  0  0  0  0  0  0  0  0
   -2.1721   28.8427    6.4684 C   0  0  0  0  0  0  0  0  0  0  0  0
   -2.2871   29.6730    7.7180 C   0  0  0  0  0  0  0  0  0  0  0  0
   -3.4336   30.0505    8.4007 C   0  0  0  0  0  0  0  0  0  0  0  0
   -3.3007   30.8759    9.5191 C   0  0  0  0  0  0  0  0  0  0  0  0
   -2.0356   31.3233    9.9310 C   0  0  0  0  0  0  0  0  0  0  0  0
   -0.8857   30.9523    9.2305 C   0  0  0  0  0  0  0  0  0  0  0  0
   -1.0256   30.1230    8.1300 C   0  0  0  0  0  0  0  0  0  0  0  0
    0.0527   29.6263    7.2111 C   0  0  0  0  0  0  0  0  0  0  0  0
   -0.6609   28.4652    6.4920 C   0  0  0  0  0  0  0  0  0  0  0  0
   -0.4583   27.2436    7.2363 O   0  0  0  0  0  0  0  0  0  0  0  0
    0.4890   27.0310    7.1782 H   0  0  0  0  0  0  0  0  0  0  0  0
   -6.0867   26.3530    5.0779 C   0  0  0  0  0  0  0  0  0  0  0  0
   -6.2166   24.1003    3.8504 C   0  0  0  0  0  0  0  0  0  0  0  0
   -6.1192   23.3757    2.6507 C   0  0  0  0  0  0  0  0  0  0  0  0
   -5.7855   24.0131    1.4554 C   0  0  0  0  0  0  0  0  0  0  0  0
   -5.5459   25.3827    1.4443 C   0  0  0  0  0  0  0  0  0  0  0  0
   -5.6468   26.1154    2.6269 C   0  0  0  0  0  0  0  0  0  0  0  0
   -5.9933   25.4923    3.8420 C   0  0  0  0  0  0  0  0  0  0  0  0
   -8.7466   22.1804    7.6554 C   0  0  0  0  0  0  0  0  0  0  0  0
   -7.6963   22.5488    6.7377 N   0  0  0  0  0  0  0  0  0  0  0  0
   -7.8160   23.3252    5.6209 C   0  0  0  0  0  0  0  0  0  0  0  0
   -6.5609   23.3699    5.0530 C   0  0  0  0  0  0  0  0  0  0  0  0
   -5.7505   22.6200    5.9328 C   0  0  0  0  0  0  0  0  0  0  0  0
   -6.4411   22.1167    6.9598 N   0  0  0  0  0  0  0  0  0  0  0  0
 25 26  1  0  0  0
 26 27  1  0  0  0
 27 28  2  0  0  0
 28 19  1  0  0  0
 19 20  2  0  0  0
 20 21  1  0  0  0
 21 22  2  0  0  0
 22 23  1  0  0  0
 23 24  2  0  0  0
 24 18  1  0  0  0
 18  1  1  0  0  0
  1  2  1  0  0  0
  2  3  2  0  0  0
  2  4  1  0  0  0
  4  7  1  0  0  0
  7  8  1  0  0  0
  8  9  2  0  0  0
  9 10  1  0  0  0
 10 11  2  0  0  0
 11 12  1  0  0  0
 12 13  2  0  0  0
 13 14  1  0  0  0
 14 15  1  0  0  0
 15 16  1  0  0  0
 28 29  1  0  0  0
 29 30  2  0  0  0
 30 26  1  0  0  0
 24 19  1  0  0  0
 15  7  1  0  0  0
 13  8  1  0  0  0
  1  5  1  0  0  0
  4  6  1  0  0  0
 16 17  1  0  0  0
M  END
> <minimizedAffinity>
-10.19063

$$$$
OCNT-2310843


 27 29  0  0  0  0  0  0  0  0999 V2000
   -2.4208   29.9628    7.3422 C   0  0  0  0  0  0  0  0  0  0  0  0
   -2.8106   28.5144    6.9783 C   0  0  0  0  0  0  0  0  0  0  0  0
   -4.1274   29.0285    6.6024 N   0  0  0  0  0  0  0  0  0  0  0  0
   -5.0098   28.5116    5.6878 C   0  0  0  0  0  0  0  0  0  0  0  0
   -5.7753   29.2075    5.0291 O   0  0  0  0  0  0  0  0  0  0  0  0
   -4.9480   27.1415    5.5796 N   0  0  0  0  0  0  0  0  0  0  0  0
   -3.7089   30.4293    6.6292 C   0  0  0  0  0  0  0  0  0  0  0  0
   -4.7058   26.6828    6.4458 H   0  0  0  0  0  0  0  0  0  0  0  0
   -2.5060   30.3244    8.8546 C   0  0  0  0  0  0  0  0  0  0  0  0
   -3.4692   31.4977    9.1565 C   0  0  0  0  0  0  0  0  0  0  0  0
   -2.4819   31.9105   10.2707 C   0  0  0  0  0  0  0  0  0  0  0  0
   -1.3785   31.1971    9.4558 C   0  0  0  0  0  0  0  0  0  0  0  0
   -1.1226   30.4943    6.7283 C   0  0  0  0  0  0  0  0  0  0  0  0
    0.7734   29.2202    7.3790 C   0  0  0  0  0  0  0  0  0  0  0  0
   -0.2505   29.4139    6.4059 O   0  0  0  0  0  0  0  0  0  0  0  0
   -5.8505   26.4369    4.6852 C   0  0  0  0  0  0  0  0  0  0  0  0
   -5.3174   26.3752    3.2489 C   0  0  0  0  0  0  0  0  0  0  0  0
   -5.5141   25.0145    2.6236 C   0  0  0  0  0  0  0  0  0  0  0  0
   -6.1896   24.8745    1.4034 C   0  0  0  0  0  0  0  0  0  0  0  0
   -6.3826   23.6124    0.8203 C   0  0  0  0  0  0  0  0  0  0  0  0
   -7.1318   23.5160   -0.4780 C   0  0  0  0  0  0  0  0  0  0  0  0
   -5.8908   22.4832    1.4914 C   0  0  0  0  0  0  0  0  0  0  0  0
   -6.0606   21.2181    0.9962 O   0  0  0  0  0  0  0  0  0  0  0  0
   -5.2063   22.6000    2.7093 C   0  0  0  0  0  0  0  0  0  0  0  0
   -4.6896   21.3838    3.4245 C   0  0  0  0  0  0  0  0  0  0  0  0
   -5.0181   23.8727    3.2642 C   0  0  0  0  0  0  0  0  0  0  0  0
   -6.5265   21.2608    0.1487 H   0  0  0  0  0  0  0  0  0  0  0  0
 14 15  1  0  0  0
 15 13  1  0  0  0
 13  1  1  0  0  0
  1  9  1  0  0  0
  9 10  1  0  0  0
 10 11  1  0  0  0
 11 12  1  0  0  0
  1  2  1  0  0  0
  2  3  1  0  0  0
  3  4  1  0  0  0
  4  5  2  0  0  0
  4  6  1  0  0  0
  6 16  1  0  0  0
 16 17  1  0  0  0
 17 18  1  0  0  0
 18 19  1  0  0  0
 19 20  2  0  0  0
 20 21  1  0  0  0
 20 22  1  0  0  0
 22 23  1  0  0  0
 22 24  2  0  0  0
 24 25  1  0  0  0
 24 26  1  0  0  0
  3  7  1  0  0  0
  7  1  1  0  0  0
 12  9  1  0  0  0
 26 18  2  0  0  0
  6  8  1  0  0  0
 23 27  1  0  0  0
M  END
> <minimizedAffinity>
-9.42104

$$$$
OCNT-2310853


 25 27  0  0  0  0  0  0  0  0999 V2000
   -6.7555   24.4745    4.9199 C   0  0  0  0  0  0  0  0  0  0  0  0
   -5.4238   25.0592    4.5402 C   0  0  0  0  0  0  0  0  0  0  0  0
   -4.8871   26.1164    5.2976 C   0  0  0  0  0  0  0  0  0  0  0  0
   -3.6660   26.7092    4.9447 C   0  0  0  0  0  0  0  0  0  0  0  0
   -2.9664   26.2299    3.8248 C   0  0  0  0  0  0  0  0  0  0  0  0
   -3.4586   25.1475    3.0959 C   0  0  0  0  0  0  0  0  0  0  0  0
   -4.6705   24.5504    3.4708 C   0  0  0  0  0  0  0  0  0  0  0  0
   -3.0820   27.7871    5.6375 N   0  0  0  0  0  0  0  0  0  0  0  0
   -2.1815   27.7363    6.6952 C   0  0  0  0  0  0  0  0  0  0  0  0
   -1.6825   26.7177    7.1690 O   0  0  0  0  0  0  0  0  0  0  0  0
   -3.4266   28.7125    5.3786 H   0  0  0  0  0  0  0  0  0  0  0  0
   -1.7185   29.1077    7.1502 C   0  0  0  0  0  0  0  0  0  0  0  0
   -0.4536   29.0517    8.0207 C   0  0  0  0  0  0  0  0  0  0  0  0
   -0.5459   30.3275    8.8371 C   0  0  0  0  0  0  0  0  0  0  0  0
   -1.9659   30.4570    9.0585 N   0  0  0  0  0  0  0  0  0  0  0  0
   -2.5154   31.4547    9.9453 C   0  0  0  0  0  0  0  0  0  0  0  0
   -2.6933   29.8566    8.0419 C   0  0  0  0  0  0  0  0  0  0  0  0
   -3.8984   29.9466    7.8543 O   0  0  0  0  0  0  0  0  0  0  0  0
   -5.1542   23.4989    2.7256 O   0  0  0  0  0  0  0  0  0  0  0  0
   -5.8922   23.8526    1.6123 C   0  0  0  0  0  0  0  0  0  0  0  0
   -5.6626   25.0365    0.9133 C   0  0  0  0  0  0  0  0  0  0  0  0
   -6.4103   25.2715   -0.2281 C   0  0  0  0  0  0  0  0  0  0  0  0
   -7.3463   24.4159   -0.7034 N   0  0  0  0  0  0  0  0  0  0  0  0
   -7.5360   23.2728   -0.0028 C   0  0  0  0  0  0  0  0  0  0  0  0
   -6.8406   22.9454    1.1520 C   0  0  0  0  0  0  0  0  0  0  0  0
  1  2  1  0  0  0
  2  3  1  0  0  0
  3  4  2  0  0  0
  4  8  1  0  0  0
  8  9  1  0  0  0
  9 10  2  0  0  0
  9 12  1  0  0  0
 12 13  1  0  0  0
 13 14  1  0  0  0
 14 15  1  0  0  0
 15 16  1  0  0  0
 15 17  1  0  0  0
 17 18  2  0  0  0
  4  5  1  0  0  0
  5  6  2  0  0  0
  6  7  1  0  0  0
  7 19  1  0  0  0
 19 20  1  0  0  0
 20 21  2  0  0  0
 21 22  1  0  0  0
 22 23  2  0  0  0
 23 24  1  0  0  0
 24 25  2  0  0  0
  7  2  2  0  0  0
 25 20  1  0  0  0
 17 12  1  0  0  0
  8 11  1  0  0  0
M  END
> <minimizedAffinity>
-8.88280

$$$$
OCNT-2310859


 25 28  0  0  0  0  0  0  0  0999 V2000
   -3.4400   27.1299    5.1782 N   0  0  0  0  0  0  0  0  0  0  0  0
   -4.9131   27.1620    5.2721 C   0  0  0  0  0  0  0  0  0  0  0  0
   -5.5497   25.9084    4.6278 C   0  0  0  0  0  0  0  0  0  0  0  0
   -5.1912   25.7665    3.1910 N   0  0  0  0  0  0  0  0  0  0  0  0
   -3.8419   26.2987    2.8659 C   0  0  0  0  0  0  0  0  0  0  0  0
   -2.8812   26.3194    4.0755 C   0  0  0  0  0  0  0  0  0  0  0  0
   -5.3281   24.4068    2.8168 C   0  0  0  0  0  0  0  0  0  0  0  0
   -4.8439   23.4591    3.6419 N   0  0  0  0  0  0  0  0  0  0  0  0
   -5.0306   22.1865    3.2733 C   0  0  0  0  0  0  0  0  0  0  0  0
   -5.6509   21.7666    2.1662 N   0  0  0  0  0  0  0  0  0  0  0  0
   -6.1238   22.7296    1.3499 C   0  0  0  0  0  0  0  0  0  0  0  0
   -5.9756   24.0857    1.6228 C   0  0  0  0  0  0  0  0  0  0  0  0
   -6.5177   25.1407    0.6966 C   0  0  0  0  0  0  0  0  0  0  0  0
   -6.8392   24.6165   -0.7031 C   0  0  0  0  0  0  0  0  0  0  0  0
   -7.6158   23.3098   -0.6145 C   0  0  0  0  0  0  0  0  0  0  0  0
   -6.7698   22.2456    0.0774 C   0  0  0  0  0  0  0  0  0  0  0  0
   -2.3428   29.2066    8.0741 C   0  0  0  0  0  0  0  0  0  0  0  0
   -3.1413   28.6340    7.0741 C   0  0  0  0  0  0  0  0  0  0  0  0
   -2.6371   27.6831    6.1619 C   0  0  0  0  0  0  0  0  0  0  0  0
   -1.2818   27.3360    6.2909 C   0  0  0  0  0  0  0  0  0  0  0  0
   -0.4711   27.8944    7.2820 C   0  0  0  0  0  0  0  0  0  0  0  0
   -1.0066   28.8210    8.1637 C   0  0  0  0  0  0  0  0  0  0  0  0
   -0.2106   29.3449    9.1084 F   0  0  0  0  0  0  0  0  0  0  0  0
   -4.1518   30.2411    9.2307 C   0  0  0  0  0  0  0  0  0  0  0  0
   -2.7553   30.1347    8.9928 O   0  0  0  0  0  0  0  0  0  0  0  0
 24 25  1  0  0  0
 25 17  1  0  0  0
 17 18  1  0  0  0
 18 19  2  0  0  0
 19  1  1  0  0  0
  1  2  1  0  0  0
  2  3  1  0  0  0
  3  4  1  0  0  0
  4  7  1  0  0  0
  7  8  1  0  0  0
  8  9  2  0  0  0
  9 10  1  0  0  0
 10 11  2  0  0  0
 11 12  1  0  0  0
 12 13  1  0  0  0
 13 14  1  0  0  0
 14 15  1  0  0  0
 15 16  1  0  0  0
  4  5  1  0  0  0
  5  6  1  0  0  0
 19 20  1  0  0  0
 20 21  2  0  0  0
 21 22  1  0  0  0
 22 23  1  0  0  0
 22 17  2  0  0  0
  6  1  1  0  0  0
 12  7  2  0  0  0
 16 11  1  0  0  0
M  END
> <minimizedAffinity>
-9.76599

$$$$
OCNT-2310864


 28 30  0  0  0  0  0  0  0  0999 V2000
   -5.9884   29.2452    7.1497 O   0  0  0  0  0  0  0  0  0  0  0  0
   -4.8788   29.1915    6.6291 C   0  0  0  0  0  0  0  0  0  0  0  0
   -4.6870   28.8822    5.3107 N   0  0  0  0  0  0  0  0  0  0  0  0
   -3.7260   29.4145    7.3401 N   0  0  0  0  0  0  0  0  0  0  0  0
   -3.7880   29.8003    8.7409 C   0  0  0  0  0  0  0  0  0  0  0  0
   -2.3460   30.1039    9.1280 C   0  0  0  0  0  0  0  0  0  0  0  0
   -1.5368   29.2026    8.1890 C   0  0  0  0  0  0  0  0  0  0  0  0
   -1.5563   27.8560    8.7160 O   0  0  0  0  0  0  0  0  0  0  0  0
   -2.3445   29.2525    6.8895 C   0  0  0  0  0  0  0  0  0  0  0  0
   -3.8495   29.2436    4.8855 H   0  0  0  0  0  0  0  0  0  0  0  0
   -2.4616   27.5052    8.6212 H   0  0  0  0  0  0  0  0  0  0  0  0
   -0.1127   29.7104    7.9596 C   0  0  0  0  0  0  0  0  0  0  0  0
    0.7978   28.7365    8.2011 F   0  0  0  0  0  0  0  0  0  0  0  0
    0.1823   30.7395    8.7869 F   0  0  0  0  0  0  0  0  0  0  0  0
    0.0765   30.1291    6.6894 F   0  0  0  0  0  0  0  0  0  0  0  0
   -5.8111   28.6858    4.4221 C   0  0  0  0  0  0  0  0  0  0  0  0
   -5.9180   27.2441    3.9941 C   0  0  0  0  0  0  0  0  0  0  0  0
   -6.2217   26.2387    4.9178 C   0  0  0  0  0  0  0  0  0  0  0  0
   -6.2973   24.8976    4.5179 C   0  0  0  0  0  0  0  0  0  0  0  0
   -6.0626   24.5313    3.1817 C   0  0  0  0  0  0  0  0  0  0  0  0
   -5.7509   25.5434    2.2671 C   0  0  0  0  0  0  0  0  0  0  0  0
   -5.5060   25.2857    0.9761 F   0  0  0  0  0  0  0  0  0  0  0  0
   -5.6771   26.8795    2.6652 C   0  0  0  0  0  0  0  0  0  0  0  0
   -6.1414   23.1630    2.7868 N   0  0  0  0  0  0  0  0  0  0  0  0
   -7.2775   22.4744    2.4036 C   0  0  0  0  0  0  0  0  0  0  0  0
   -6.8784   21.1915    2.1155 C   0  0  0  0  0  0  0  0  0  0  0  0
   -5.5376   21.0517    2.3036 N   0  0  0  0  0  0  0  0  0  0  0  0
   -5.1225   22.2359    2.7007 C   0  0  0  0  0  0  0  0  0  0  0  0
  1  2  2  0  0  0
  2  3  1  0  0  0
  3 16  1  0  0  0
 16 17  1  0  0  0
 17 18  1  0  0  0
 18 19  2  0  0  0
 19 20  1  0  0  0
 20 24  1  0  0  0
 24 25  1  0  0  0
 25 26  2  0  0  0
 26 27  1  0  0  0
 27 28  2  0  0  0
 20 21  2  0  0  0
 21 22  1  0  0  0
 21 23  1  0  0  0
  2  4  1  0  0  0
  4  5  1  0  0  0
  5  6  1  0  0  0
  6  7  1  0  0  0
  7  8  1  0  0  0
  7 12  1  0  0  0
 12 13  1  0  0  0
 12 14  1  0  0  0
 12 15  1  0  0  0
  7  9  1  0  0  0
 23 17  2  0  0  0
  9  4  1  0  0  0
 28 24  1  0  0  0
  3 10  1  0  0  0
  8 11  1  0  0  0
M  END
> <minimizedAffinity>
-9.83127

$$$$
OCNT-2310873


 25 27  0  0  0  0  0  0  0  0999 V2000
   -1.0444   27.2853    7.1057 N   0  0  0  0  0  0  0  0  0  0  0  0
   -2.0250   26.2680    6.7861 C   0  0  0  0  0  0  0  0  0  0  0  0
   -1.8890   26.6787    5.3113 C   0  0  0  0  0  0  0  0  0  0  0  0
   -0.5453   27.2775    5.7485 C   0  0  0  0  0  0  0  0  0  0  0  0
   -2.1607   30.8004    9.1125 C   0  0  0  0  0  0  0  0  0  0  0  0
   -3.0738   29.8898    8.6017 C   0  0  0  0  0  0  0  0  0  0  0  0
   -2.7277   28.7526    7.9462 N   0  0  0  0  0  0  0  0  0  0  0  0
   -1.4085   28.4735    7.7938 C   0  0  0  0  0  0  0  0  0  0  0  0
   -0.4246   29.3495    8.2895 C   0  0  0  0  0  0  0  0  0  0  0  0
    1.2700   29.0667    8.0839 Cl  0  0  0  0  0  0  0  0  0  0  0  0
   -0.8064   30.5167    8.9580 C   0  0  0  0  0  0  0  0  0  0  0  0
   -3.5762   32.7878    9.1441 N   0  0  0  0  0  0  0  0  0  0  0  0
   -2.6724   32.0030    9.8043 C   0  0  0  0  0  0  0  0  0  0  0  0
   -2.3184   32.2779   10.9433 O   0  0  0  0  0  0  0  0  0  0  0  0
   -4.0838   32.4859    8.3253 H   0  0  0  0  0  0  0  0  0  0  0  0
   -3.9835   33.5431    9.6832 H   0  0  0  0  0  0  0  0  0  0  0  0
   -1.8031   25.5750    4.2705 C   0  0  0  0  0  0  0  0  0  0  0  0
   -3.0891   25.5057    3.4833 C   0  0  0  0  0  0  0  0  0  0  0  0
   -3.4145   24.3502    2.7531 C   0  0  0  0  0  0  0  0  0  0  0  0
   -4.5955   24.2901    2.0086 C   0  0  0  0  0  0  0  0  0  0  0  0
   -5.4520   25.3849    1.9899 C   0  0  0  0  0  0  0  0  0  0  0  0
   -6.5828   25.3231    1.2734 F   0  0  0  0  0  0  0  0  0  0  0  0
   -5.1380   26.5332    2.7051 C   0  0  0  0  0  0  0  0  0  0  0  0
   -5.9633   27.5890    2.6834 F   0  0  0  0  0  0  0  0  0  0  0  0
   -3.9633   26.6022    3.4496 C   0  0  0  0  0  0  0  0  0  0  0  0
 12 13  1  0  0  0
 13 14  2  0  0  0
 13  5  1  0  0  0
  5  6  1  0  0  0
  6  7  2  0  0  0
  7  8  1  0  0  0
  8  1  1  0  0  0
  1  2  1  0  0  0
  2  3  1  0  0  0
  3 17  1  0  0  0
 17 18  1  0  0  0
 18 19  1  0  0  0
 19 20  2  0  0  0
 20 21  1  0  0  0
 21 22  1  0  0  0
 21 23  2  0  0  0
 23 24  1  0  0  0
 23 25  1  0  0  0
  3  4  1  0  0  0
  8  9  2  0  0  0
  9 10  1  0  0  0
  9 11  1  0  0  0
 11  5  2  0  0  0
  4  1  1  0  0  0
 25 18  2  0  0  0
 12 15  1  0  0  0
 12 16  1  0  0  0
M  END
> <minimizedAffinity>
-8.90252

$$$$
OCNT-2310875


 29 32  0  0  0  0  0  0  0  0999 V2000
   -5.7358   28.7871    7.0352 O   0  0  0  0  0  0  0  0  0  0  0  0
   -5.2266   28.6301    5.9287 C   0  0  0  0  0  0  0  0  0  0  0  0
   -3.8616   28.5626    5.7181 N   0  0  0  0  0  0  0  0  0  0  0  0
   -3.5397   28.7232    4.7687 H   0  0  0  0  0  0  0  0  0  0  0  0
   -2.9331   28.8296    6.8058 C   0  0  0  0  0  0  0  0  0  0  0  0
   -2.0039   30.0070    6.4693 C   0  0  0  0  0  0  0  0  0  0  0  0
   -0.6950   29.6928    7.1965 C   0  0  0  0  0  0  0  0  0  0  0  0
   -0.5683   28.1813    6.9647 C   0  0  0  0  0  0  0  0  0  0  0  0
   -1.9905   27.6375    7.1031 C   0  0  0  0  0  0  0  0  0  0  0  0
   -2.1921   27.1788    8.4389 O   0  0  0  0  0  0  0  0  0  0  0  0
   -1.6337   26.3894    8.5664 H   0  0  0  0  0  0  0  0  0  0  0  0
   -0.7604   30.1057    8.6789 C   0  0  0  0  0  0  0  0  0  0  0  0
   -1.7589   31.1236    8.9442 N   0  0  0  0  0  0  0  0  0  0  0  0
   -2.8474   31.0007    9.7614 C   0  0  0  0  0  0  0  0  0  0  0  0
   -3.5014   32.2061    9.6606 C   0  0  0  0  0  0  0  0  0  0  0  0
   -2.8275   33.0577    8.8206 N   0  0  0  0  0  0  0  0  0  0  0  0
   -1.7735   32.3841    8.4177 C   0  0  0  0  0  0  0  0  0  0  0  0
   -6.0525   28.5224    4.6578 C   0  0  0  0  0  0  0  0  0  0  0  0
   -5.9653   27.1450    4.0421 C   0  0  0  0  0  0  0  0  0  0  0  0
   -6.1941   26.0082    4.8270 C   0  0  0  0  0  0  0  0  0  0  0  0
   -6.1575   24.7286    4.2624 C   0  0  0  0  0  0  0  0  0  0  0  0
   -5.8878   24.5628    2.8967 C   0  0  0  0  0  0  0  0  0  0  0  0
   -5.6424   25.7010    2.1122 C   0  0  0  0  0  0  0  0  0  0  0  0
   -5.6797   26.9799    2.6826 C   0  0  0  0  0  0  0  0  0  0  0  0
   -5.8737   23.2606    2.3158 N   0  0  0  0  0  0  0  0  0  0  0  0
   -5.6935   22.0560    2.9613 C   0  0  0  0  0  0  0  0  0  0  0  0
   -5.7851   21.0833    1.9947 C   0  0  0  0  0  0  0  0  0  0  0  0
   -6.0084   21.6370    0.7699 N   0  0  0  0  0  0  0  0  0  0  0  0
   -6.0504   22.9325    0.9863 C   0  0  0  0  0  0  0  0  0  0  0  0
  1  2  2  0  0  0
  2 18  1  0  0  0
 18 19  1  0  0  0
 19 20  1  0  0  0
 20 21  2  0  0  0
 21 22  1  0  0  0
 22 25  1  0  0  0
 25 26  1  0  0  0
 26 27  2  0  0  0
 27 28  1  0  0  0
 28 29  2  0  0  0
 22 23  2  0  0  0
 23 24  1  0  0  0
  2  3  1  0  0  0
  3  5  1  0  0  0
  5  6  1  0  0  0
  6  7  1  0  0  0
  7 12  1  0  0  0
 12 13  1  0  0  0
 13 14  1  0  0  0
 14 15  2  0  0  0
 15 16  1  0  0  0
 16 17  2  0  0  0
  7  8  1  0  0  0
  8  9  1  0  0  0
  9 10  1  0  0  0
 24 19  2  0  0  0
  9  5  1  0  0  0
 29 25  1  0  0  0
 17 13  1  0  0  0
  3  4  1  0  0  0
 10 11  1  0  0  0
M  END
> <minimizedAffinity>
-9.50814

$$$$
OCNT-2310884


 23 25  0  0  0  0  0  0  0  0999 V2000
   -4.9424   25.8374    3.7207 C   0  0  0  0  0  0  0  0  0  0  0  0
   -5.3460   26.8358    4.4803 N   0  0  0  0  0  0  0  0  0  0  0  0
   -4.2740   27.1759    5.2788 N   0  0  0  0  0  0  0  0  0  0  0  0
   -3.2870   26.3675    4.9529 C   0  0  0  0  0  0  0  0  0  0  0  0
   -3.6410   25.4867    3.9656 O   0  0  0  0  0  0  0  0  0  0  0  0
   -7.7442   22.9119   -0.4073 C   0  0  0  0  0  0  0  0  0  0  0  0
   -7.0427   23.6802    0.6736 C   0  0  0  0  0  0  0  0  0  0  0  0
   -6.3397   24.8501    0.3697 C   0  0  0  0  0  0  0  0  0  0  0  0
   -5.6602   25.5488    1.3725 C   0  0  0  0  0  0  0  0  0  0  0  0
   -5.6596   25.0884    2.6970 C   0  0  0  0  0  0  0  0  0  0  0  0
   -6.3545   23.9067    2.9920 C   0  0  0  0  0  0  0  0  0  0  0  0
   -7.0346   23.2067    1.9896 C   0  0  0  0  0  0  0  0  0  0  0  0
   -1.7004   26.3776    5.6593 S   0  0  0  0  0  0  0  0  0  0  0  0
   -2.0325   27.1093    7.2951 C   0  0  0  0  0  0  0  0  0  0  0  0
   -0.9484   28.1224    7.7001 C   0  0  0  0  0  0  0  0  0  0  0  0
   -1.4641   29.2108    8.5642 N   0  0  0  0  0  0  0  0  0  0  0  0
   -0.6426   30.4289    8.4576 C   0  0  0  0  0  0  0  0  0  0  0  0
   -1.1538   31.5136    9.3973 C   0  0  0  0  0  0  0  0  0  0  0  0
   -2.6120   31.7969    9.1199 C   0  0  0  0  0  0  0  0  0  0  0  0
   -3.0843   32.6877   10.0282 F   0  0  0  0  0  0  0  0  0  0  0  0
   -2.7291   32.3973    7.9050 F   0  0  0  0  0  0  0  0  0  0  0  0
   -3.4604   30.5471    9.1438 C   0  0  0  0  0  0  0  0  0  0  0  0
   -2.8674   29.4987    8.2131 C   0  0  0  0  0  0  0  0  0  0  0  0
  6  7  1  0  0  0
  7  8  1  0  0  0
  8  9  2  0  0  0
  9 10  1  0  0  0
 10  1  1  0  0  0
  1  2  2  0  0  0
  2  3  1  0  0  0
  3  4  2  0  0  0
  4 13  1  0  0  0
 13 14  1  0  0  0
 14 15  1  0  0  0
 15 16  1  0  0  0
 16 17  1  0  0  0
 17 18  1  0  0  0
 18 19  1  0  0  0
 19 20  1  0  0  0
 19 21  1  0  0  0
 19 22  1  0  0  0
 22 23  1  0  0  0
  4  5  1  0  0  0
 10 11  2  0  0  0
 11 12  1  0  0  0
 12  7  2  0  0  0
  5  1  1  0  0  0
 23 16  1  0  0  0
M  END
> <minimizedAffinity>
-9.04226

$$$$
OCNT-2310886


 22 23  0  0  0  0  0  0  0  0999 V2000
   -5.3212   27.0151    5.3715 C   0  0  0  0  0  0  0  0  0  0  0  0
   -5.9477   28.2282    6.1056 C   0  0  0  0  0  0  0  0  0  0  0  0
   -6.7514   29.1626    5.2075 C   0  0  0  0  0  0  0  0  0  0  0  0
   -6.0349   29.3908    3.8909 C   0  0  0  0  0  0  0  0  0  0  0  0
   -5.8174   28.0899    3.1167 C   0  0  0  0  0  0  0  0  0  0  0  0
   -5.9577   26.7947    3.9634 C   0  0  0  0  0  0  0  0  0  0  0  0
   -5.4207   25.6233    3.2272 N   0  0  0  0  0  0  0  0  0  0  0  0
   -5.7883   24.3039    3.7991 C   0  0  0  0  0  0  0  0  0  0  0  0
   -6.8877   23.5692    3.0130 C   0  0  0  0  0  0  0  0  0  0  0  0
   -6.5439   23.3189    1.6439 O   0  0  0  0  0  0  0  0  0  0  0  0
   -5.5936   24.2591    1.1303 C   0  0  0  0  0  0  0  0  0  0  0  0
   -5.7321   25.6451    1.7782 C   0  0  0  0  0  0  0  0  0  0  0  0
   -3.7820   27.1218    5.3015 C   0  0  0  0  0  0  0  0  0  0  0  0
   -1.9905   28.3276    6.5237 C   0  0  0  0  0  0  0  0  0  0  0  0
   -1.2109   27.3833    6.4430 O   0  0  0  0  0  0  0  0  0  0  0  0
   -3.2684   28.2964    5.9883 N   0  0  0  0  0  0  0  0  0  0  0  0
   -3.8914   29.0788    6.1352 H   0  0  0  0  0  0  0  0  0  0  0  0
   -1.6613   29.6597    7.2136 C   0  0  0  0  0  0  0  0  0  0  0  0
   -1.3738   29.5244    8.5964 O   0  0  0  0  0  0  0  0  0  0  0  0
   -0.5423   30.5749    9.0788 C   0  0  0  0  0  0  0  0  0  0  0  0
   -2.2640   31.9841   10.2859 C   0  0  0  0  0  0  0  0  0  0  0  0
   -1.3312   31.8797    9.0876 C   0  0  0  0  0  0  0  0  0  0  0  0
 21 22  1  0  0  0
 22 20  1  0  0  0
 20 19  1  0  0  0
 19 18  1  0  0  0
 18 14  1  0  0  0
 14 15  2  0  0  0
 14 16  1  0  0  0
 16 13  1  0  0  0
 13  1  1  0  0  0
  1  2  1  0  0  0
  2  3  1  0  0  0
  3  4  1  0  0  0
  4  5  1  0  0  0
  5  6  1  0  0  0
  6  7  1  0  0  0
  7  8  1  0  0  0
  8  9  1  0  0  0
  9 10  1  0  0  0
 10 11  1  0  0  0
 11 12  1  0  0  0
  6  1  1  0  0  0
 12  7  1  0  0  0
 16 17  1  0  0  0
M  END
> <minimizedAffinity>
-7.19922

$$$$
