OCNT-0018684


 21 22  0  0  0  0  0  0  0  0999 V2000
    3.1469   17.4179   21.2403 O   0  0  0  0  0  0  0  0  0  0  0  0
    2.2305   16.4409   20.9299 C   0  0  0  0  0  0  0  0  0  0  0  0
    1.3293   16.6362   19.8611 C   0  0  0  0  0  0  0  0  0  0  0  0
    1.2999   17.8129   19.0832 C   0  0  0  0  0  0  0  0  0  0  0  0
    0.3838   17.9682   18.0418 C   0  0  0  0  0  0  0  0  0  0  0  0
   -0.5200   16.9508   17.7571 C   0  0  0  0  0  0  0  0  0  0  0  0
   -0.5062   15.7761   18.5103 C   0  0  0  0  0  0  0  0  0  0  0  0
    0.4110   15.6027   19.5600 C   0  0  0  0  0  0  0  0  0  0  0  0
    0.4326   14.4153   20.3117 C   0  0  0  0  0  0  0  0  0  0  0  0
    1.3533   14.2346   21.3450 C   0  0  0  0  0  0  0  0  0  0  0  0
    2.2588   15.2449   21.6508 C   0  0  0  0  0  0  0  0  0  0  0  0
    4.4067   16.8193   21.6001 C   0  0  0  0  0  0  0  0  0  0  0  0
    5.3727   17.9569   21.9469 C   0  0  0  0  0  0  0  0  0  0  0  0
    5.3312   18.1940   23.3663 O   0  0  0  0  0  0  0  0  0  0  0  0
    5.5045   17.3265   23.7793 H   0  0  0  0  0  0  0  0  0  0  0  0
    4.9865   19.2522   21.2119 C   0  0  0  0  0  0  0  0  0  0  0  0
    5.1851   20.4072   22.0967 N   0  0  0  0  0  0  0  0  0  0  0  0
    4.3262   20.5366   22.6401 H   0  0  0  0  0  0  0  0  0  0  0  0
    4.5524   21.7839   20.2125 C   0  0  0  0  0  0  0  0  0  0  0  0
    5.5305   21.6370   21.3803 C   0  0  0  0  0  0  0  0  0  0  0  0
    6.9659   21.6191   20.8504 C   0  0  0  0  0  0  0  0  0  0  0  0
 19 20  1  0  0  0
 20 21  1  0  0  0
 20 17  1  0  0  0
 17 16  1  0  0  0
 16 13  1  0  0  0
 13 14  1  0  0  0
 13 12  1  0  0  0
 12  1  1  0  0  0
  1  2  1  0  0  0
  2  3  1  0  0  0
  3  4  2  0  0  0
  4  5  1  0  0  0
  5  6  2  0  0  0
  6  7  1  0  0  0
  7  8  2  0  0  0
  8  9  1  0  0  0
  9 10  2  0  0  0
 10 11  1  0  0  0
 11  2  2  0  0  0
  8  3  1  0  0  0
 17 18  1  0  0  0
 14 15  1  0  0  0
M  END
> <minimizedAffinity>
-10.66935

$$$$
OCNT-0021943


 17 18  0  0  0  0  0  0  0  0999 V2000
    2.7134   18.0467   20.2717 C   0  0  0  0  0  0  0  0  0  0  0  0
    3.6443   18.0409   21.2923 C   0  0  0  0  0  0  0  0  0  0  0  0
    3.5382   16.8547   21.9662 N   0  0  0  0  0  0  0  0  0  0  0  0
    2.5534   16.0751   21.4063 C   0  0  0  0  0  0  0  0  0  0  0  0
    2.1031   14.7968   21.7611 C   0  0  0  0  0  0  0  0  0  0  0  0
    1.0691   14.2379   21.0029 C   0  0  0  0  0  0  0  0  0  0  0  0
    0.5189   14.9419   19.9377 C   0  0  0  0  0  0  0  0  0  0  0  0
   -0.4911   14.4106   19.1868 O   0  0  0  0  0  0  0  0  0  0  0  0
    0.9729   16.2147   19.5915 C   0  0  0  0  0  0  0  0  0  0  0  0
    2.0147   16.7981   20.3408 C   0  0  0  0  0  0  0  0  0  0  0  0
    4.0999   16.5853   22.7617 H   0  0  0  0  0  0  0  0  0  0  0  0
   -0.7115   13.5347   19.5430 H   0  0  0  0  0  0  0  0  0  0  0  0
    2.4839   19.1498   19.2850 C   0  0  0  0  0  0  0  0  0  0  0  0
    0.4919   19.9566   18.0480 N   0  0  0  0  0  0  0  0  0  0  0  0
    1.0636   19.7203   19.3754 C   0  0  0  0  0  0  0  0  0  0  0  0
    1.0523   20.6537   17.5584 H   0  0  0  0  0  0  0  0  0  0  0  0
   -0.4356   20.3658   18.1559 H   0  0  0  0  0  0  0  0  0  0  0  0
 14 15  1  0  0  0
 15 13  1  0  0  0
 13  1  1  0  0  0
  1  2  2  0  0  0
  2  3  1  0  0  0
  3  4  1  0  0  0
  4  5  2  0  0  0
  5  6  1  0  0  0
  6  7  2  0  0  0
  7  8  1  0  0  0
  7  9  1  0  0  0
  9 10  2  0  0  0
 10  1  1  0  0  0
 10  4  1  0  0  0
 14 16  1  0  0  0
 14 17  1  0  0  0
  3 11  1  0  0  0
  8 12  1  0  0  0
M  END
> <minimizedAffinity>
-8.30515

$$$$
OCNT-0022119


 28 31  0  0  0  0  0  0  0  0999 V2000
    3.8091   18.8858   20.6280 N   0  0  0  0  0  0  0  0  0  0  0  0
    4.8382   19.7213   21.1417 C   0  0  0  0  0  0  0  0  0  0  0  0
    5.9729   19.1906   21.7863 C   0  0  0  0  0  0  0  0  0  0  0  0
    6.9735   20.0397   22.2918 C   0  0  0  0  0  0  0  0  0  0  0  0
    6.8535   21.4228   22.1915 C   0  0  0  0  0  0  0  0  0  0  0  0
    5.7263   21.9669   21.5937 C   0  0  0  0  0  0  0  0  0  0  0  0
    4.7311   21.1261   21.0850 C   0  0  0  0  0  0  0  0  0  0  0  0
    6.2472   17.4396   21.9651 S   0  0  0  0  0  0  0  0  0  0  0  0
    4.6174   16.7895   21.6608 C   0  0  0  0  0  0  0  0  0  0  0  0
    4.3895   15.4575   22.0497 C   0  0  0  0  0  0  0  0  0  0  0  0
    3.1551   14.8523   21.8284 C   0  0  0  0  0  0  0  0  0  0  0  0
    2.1435   15.5818   21.2211 C   0  0  0  0  0  0  0  0  0  0  0  0
    0.6066   14.8530   20.9576 Cl  0  0  0  0  0  0  0  0  0  0  0  0
    2.3600   16.9039   20.8269 C   0  0  0  0  0  0  0  0  0  0  0  0
    3.6057   17.5349   21.0207 C   0  0  0  0  0  0  0  0  0  0  0  0
    3.2462   19.2797   19.3081 C   0  0  0  0  0  0  0  0  0  0  0  0
    2.3008   20.4905   19.3815 C   0  0  0  0  0  0  0  0  0  0  0  0
    0.8304   20.1667   19.0912 C   0  0  0  0  0  0  0  0  0  0  0  0
   -1.0772   16.6977   17.3407 N   0  0  0  0  0  0  0  0  0  0  0  0
   -0.6035   16.6553   18.7431 C   0  0  0  0  0  0  0  0  0  0  0  0
   -0.3444   18.0660   19.3194 C   0  0  0  0  0  0  0  0  0  0  0  0
    0.6293   18.8297   18.5127 N   0  0  0  0  0  0  0  0  0  0  0  0
    0.1546   18.8846   17.1170 C   0  0  0  0  0  0  0  0  0  0  0  0
   -0.1053   17.4738   16.5387 C   0  0  0  0  0  0  0  0  0  0  0  0
   -1.2266   15.3390   16.7727 C   0  0  0  0  0  0  0  0  0  0  0  0
   -1.1998   12.9667   17.2721 O   0  0  0  0  0  0  0  0  0  0  0  0
   -0.8346   14.2484   17.7811 C   0  0  0  0  0  0  0  0  0  0  0  0
   -2.0183   13.1294   16.7592 H   0  0  0  0  0  0  0  0  0  0  0  0
 26 27  1  0  0  0
 27 25  1  0  0  0
 25 19  1  0  0  0
 19 20  1  0  0  0
 20 21  1  0  0  0
 21 22  1  0  0  0
 22 18  1  0  0  0
 18 17  1  0  0  0
 17 16  1  0  0  0
 16  1  1  0  0  0
  1  2  1  0  0  0
  2  3  1  0  0  0
  3  4  2  0  0  0
  4  5  1  0  0  0
  5  6  2  0  0  0
  6  7  1  0  0  0
  3  8  1  0  0  0
  8  9  1  0  0  0
  9 10  1  0  0  0
 10 11  2  0  0  0
 11 12  1  0  0  0
 12 13  1  0  0  0
 12 14  2  0  0  0
 14 15  1  0  0  0
 22 23  1  0  0  0
 23 24  1  0  0  0
 24 19  1  0  0  0
 15  1  1  0  0  0
  7  2  2  0  0  0
 15  9  2  0  0  0
 26 28  1  0  0  0
M  END
> <minimizedAffinity>
-8.22773

$$$$
OCNT-0022129


 24 27  0  0  0  0  0  0  0  0999 V2000
    1.7249   17.4516   19.8215 C   0  0  0  0  0  0  0  0  0  0  0  0
    1.7478   16.2381   20.4293 C   0  0  0  0  0  0  0  0  0  0  0  0
    1.0089   15.0965   19.8800 C   0  0  0  0  0  0  0  0  0  0  0  0
    0.7437   14.0044   20.6078 C   0  0  0  0  0  0  0  0  0  0  0  0
    1.1619   13.9158   21.9801 C   0  0  0  0  0  0  0  0  0  0  0  0
    1.9486   14.8463   22.5329 C   0  0  0  0  0  0  0  0  0  0  0  0
    2.4442   16.0288   21.7516 C   0  0  0  0  0  0  0  0  0  0  0  0
    3.4201   16.6574   22.3214 N   0  0  0  0  0  0  0  0  0  0  0  0
    4.1175   17.7341   21.7712 C   0  0  0  0  0  0  0  0  0  0  0  0
    3.6144   18.6728   20.8575 C   0  0  0  0  0  0  0  0  0  0  0  0
    4.4181   19.7798   20.5096 C   0  0  0  0  0  0  0  0  0  0  0  0
    5.7054   19.9278   21.0226 C   0  0  0  0  0  0  0  0  0  0  0  0
    6.6622   21.2800   20.5584 Cl  0  0  0  0  0  0  0  0  0  0  0  0
    6.2158   18.9896   21.9049 C   0  0  0  0  0  0  0  0  0  0  0  0
    5.4182   17.9088   22.2786 C   0  0  0  0  0  0  0  0  0  0  0  0
    2.3286   18.6012   20.2841 N   0  0  0  0  0  0  0  0  0  0  0  0
    2.1549   19.3472   19.6225 H   0  0  0  0  0  0  0  0  0  0  0  0
   -2.4850   18.9003   16.7826 C   0  0  0  0  0  0  0  0  0  0  0  0
   -1.0755   18.5395   16.6603 N   0  0  0  0  0  0  0  0  0  0  0  0
   -0.2309   19.4525   17.4614 C   0  0  0  0  0  0  0  0  0  0  0  0
    1.1428   18.8582   17.8364 C   0  0  0  0  0  0  0  0  0  0  0  0
    0.9912   17.6232   18.6371 N   0  0  0  0  0  0  0  0  0  0  0  0
   -0.2746   16.8885   18.4327 C   0  0  0  0  0  0  0  0  0  0  0  0
   -0.8341   17.1231   17.0135 C   0  0  0  0  0  0  0  0  0  0  0  0
 18 19  1  0  0  0
 19 20  1  0  0  0
 20 21  1  0  0  0
 21 22  1  0  0  0
 22  1  1  0  0  0
  1  2  2  0  0  0
  2  3  1  0  0  0
  3  4  2  0  0  0
  4  5  1  0  0  0
  5  6  2  0  0  0
  6  7  1  0  0  0
  7  8  2  0  0  0
  8  9  1  0  0  0
  9 10  2  0  0  0
 10 11  1  0  0  0
 11 12  2  0  0  0
 12 13  1  0  0  0
 12 14  1  0  0  0
 14 15  2  0  0  0
 10 16  1  0  0  0
 22 23  1  0  0  0
 23 24  1  0  0  0
 24 19  1  0  0  0
 16  1  1  0  0  0
  7  2  1  0  0  0
 15  9  1  0  0  0
 16 17  1  0  0  0
M  END
> <minimizedAffinity>
-10.65470

$$$$
OCNT-0022130


 23 26  0  0  0  0  0  0  0  0999 V2000
    1.2112   14.1312   21.2936 C   0  0  0  0  0  0  0  0  0  0  0  0
    2.0403   15.3639   21.1916 C   0  0  0  0  0  0  0  0  0  0  0  0
    1.7774   16.4330   20.4315 C   0  0  0  0  0  0  0  0  0  0  0  0
    2.7555   17.5087   20.5295 C   0  0  0  0  0  0  0  0  0  0  0  0
    2.6778   18.6757   19.8571 C   0  0  0  0  0  0  0  0  0  0  0  0
    3.5544   19.7216   19.9587 N   0  0  0  0  0  0  0  0  0  0  0  0
    4.7561   19.9103   20.6571 C   0  0  0  0  0  0  0  0  0  0  0  0
    5.3917   21.1611   20.4572 C   0  0  0  0  0  0  0  0  0  0  0  0
    6.5804   21.5070   21.1005 C   0  0  0  0  0  0  0  0  0  0  0  0
    7.1639   20.6080   21.9747 C   0  0  0  0  0  0  0  0  0  0  0  0
    6.5470   19.3784   22.1960 C   0  0  0  0  0  0  0  0  0  0  0  0
    5.3454   19.0083   21.5573 C   0  0  0  0  0  0  0  0  0  0  0  0
    4.8962   17.7385   21.9261 N   0  0  0  0  0  0  0  0  0  0  0  0
    3.8415   17.1719   21.4845 C   0  0  0  0  0  0  0  0  0  0  0  0
    3.5008   15.5353   22.1167 S   0  0  0  0  0  0  0  0  0  0  0  0
    3.3613   20.4267   19.2612 H   0  0  0  0  0  0  0  0  0  0  0  0
    1.6205   18.8778   18.9545 N   0  0  0  0  0  0  0  0  0  0  0  0
    1.3503   17.9144   17.8672 C   0  0  0  0  0  0  0  0  0  0  0  0
    0.2827   18.4575   16.8931 C   0  0  0  0  0  0  0  0  0  0  0  0
   -1.0152   18.8002   17.5152 N   0  0  0  0  0  0  0  0  0  0  0  0
   -2.0189   17.7636   17.2929 C   0  0  0  0  0  0  0  0  0  0  0  0
   -0.8681   19.0835   18.9598 C   0  0  0  0  0  0  0  0  0  0  0  0
    0.4775   19.7454   19.3252 C   0  0  0  0  0  0  0  0  0  0  0  0
  1  2  1  0  0  0
  2  3  2  0  0  0
  3  4  1  0  0  0
  4  5  2  0  0  0
  5 17  1  0  0  0
 17 18  1  0  0  0
 18 19  1  0  0  0
 19 20  1  0  0  0
 20 21  1  0  0  0
 20 22  1  0  0  0
 22 23  1  0  0  0
  5  6  1  0  0  0
  6  7  1  0  0  0
  7  8  2  0  0  0
  8  9  1  0  0  0
  9 10  2  0  0  0
 10 11  1  0  0  0
 11 12  2  0  0  0
 12 13  1  0  0  0
 13 14  2  0  0  0
 14 15  1  0  0  0
 15  2  1  0  0  0
 14  4  1  0  0  0
 23 17  1  0  0  0
 12  7  1  0  0  0
  6 16  1  0  0  0
M  END
> <minimizedAffinity>
-9.88209

$$$$
OCNT-0022141


 25 28  0  0  0  0  0  0  0  0999 V2000
    5.2978   20.0931   21.3842 C   0  0  0  0  0  0  0  0  0  0  0  0
    6.1742   19.3018   22.1212 C   0  0  0  0  0  0  0  0  0  0  0  0
    5.9153   17.9400   22.2817 C   0  0  0  0  0  0  0  0  0  0  0  0
    4.7804   17.3490   21.7043 C   0  0  0  0  0  0  0  0  0  0  0  0
    4.5834   15.5952   21.9374 S   0  0  0  0  0  0  0  0  0  0  0  0
    2.8849   15.3542   21.4582 C   0  0  0  0  0  0  0  0  0  0  0  0
    2.1561   16.3113   20.7283 C   0  0  0  0  0  0  0  0  0  0  0  0
    0.8139   16.0119   20.4202 C   0  0  0  0  0  0  0  0  0  0  0  0
    0.2299   14.7942   20.7802 C   0  0  0  0  0  0  0  0  0  0  0  0
    0.9732   13.8481   21.4721 C   0  0  0  0  0  0  0  0  0  0  0  0
    2.2941   14.1289   21.8127 C   0  0  0  0  0  0  0  0  0  0  0  0
    2.7136   17.5667   20.3575 N   0  0  0  0  0  0  0  0  0  0  0  0
    3.8842   18.1253   20.9479 C   0  0  0  0  0  0  0  0  0  0  0  0
    4.1548   19.5052   20.8267 C   0  0  0  0  0  0  0  0  0  0  0  0
    7.2881   21.8713   20.6440 C   0  0  0  0  0  0  0  0  0  0  0  0
    5.5521   21.8470   21.1652 S   0  0  0  0  0  0  0  0  0  0  0  0
    2.5347   17.9156   18.9188 C   0  0  0  0  0  0  0  0  0  0  0  0
    1.0854   18.3330   18.6156 C   0  0  0  0  0  0  0  0  0  0  0  0
    0.4761   17.5386   17.4383 C   0  0  0  0  0  0  0  0  0  0  0  0
    0.0400   18.4861   16.3023 C   0  0  0  0  0  0  0  0  0  0  0  0
   -1.2337   19.2572   16.6350 C   0  0  0  0  0  0  0  0  0  0  0  0
   -2.3346   18.3088   17.0938 C   0  0  0  0  0  0  0  0  0  0  0  0
   -1.8499   17.3815   18.2093 C   0  0  0  0  0  0  0  0  0  0  0  0
   -0.6138   16.6498   17.8912 N   0  0  0  0  0  0  0  0  0  0  0  0
   -0.8617   15.5574   16.9483 C   0  0  0  0  0  0  0  0  0  0  0  0
 15 16  1  0  0  0
 16  1  1  0  0  0
  1  2  1  0  0  0
  2  3  2  0  0  0
  3  4  1  0  0  0
  4  5  1  0  0  0
  5  6  1  0  0  0
  6  7  1  0  0  0
  7  8  2  0  0  0
  8  9  1  0  0  0
  9 10  2  0  0  0
 10 11  1  0  0  0
  7 12  1  0  0  0
 12 17  1  0  0  0
 17 18  1  0  0  0
 18 19  1  0  0  0
 19 20  1  0  0  0
 20 21  1  0  0  0
 21 22  1  0  0  0
 22 23  1  0  0  0
 23 24  1  0  0  0
 24 25  1  0  0  0
 12 13  1  0  0  0
 13 14  1  0  0  0
 14  1  2  0  0  0
 13  4  2  0  0  0
 11  6  2  0  0  0
 24 19  1  0  0  0
M  END
> <minimizedAffinity>
-7.70718

$$$$
OCNT-0022246


 28 31  0  0  0  0  0  0  0  0999 V2000
    3.7258   18.6878   20.2967 N   0  0  0  0  0  0  0  0  0  0  0  0
    4.7039   19.6690   20.6400 C   0  0  0  0  0  0  0  0  0  0  0  0
    4.6612   20.9890   20.1332 C   0  0  0  0  0  0  0  0  0  0  0  0
    5.6094   21.9620   20.4731 C   0  0  0  0  0  0  0  0  0  0  0  0
    6.6403   21.6491   21.3415 C   0  0  0  0  0  0  0  0  0  0  0  0
    6.7150   20.3643   21.8653 C   0  0  0  0  0  0  0  0  0  0  0  0
    5.7617   19.3821   21.5267 C   0  0  0  0  0  0  0  0  0  0  0  0
    6.0231   17.7869   22.2630 S   0  0  0  0  0  0  0  0  0  0  0  0
    4.5364   16.9191   21.8270 C   0  0  0  0  0  0  0  0  0  0  0  0
    3.5809   17.4134   20.9174 C   0  0  0  0  0  0  0  0  0  0  0  0
    2.4621   16.5807   20.6784 C   0  0  0  0  0  0  0  0  0  0  0  0
    2.2876   15.3246   21.2948 C   0  0  0  0  0  0  0  0  0  0  0  0
    3.2652   14.8662   22.1731 C   0  0  0  0  0  0  0  0  0  0  0  0
    4.3762   15.6597   22.4377 C   0  0  0  0  0  0  0  0  0  0  0  0
    1.0768   14.4834   20.9761 C   0  0  0  0  0  0  0  0  0  0  0  0
    1.2109   13.1995   21.4078 F   0  0  0  0  0  0  0  0  0  0  0  0
    0.8243   14.4022   19.6390 F   0  0  0  0  0  0  0  0  0  0  0  0
   -0.0702   14.9520   21.5417 F   0  0  0  0  0  0  0  0  0  0  0  0
    2.8477   18.9926   19.1388 C   0  0  0  0  0  0  0  0  0  0  0  0
    1.6017   19.7797   19.5746 C   0  0  0  0  0  0  0  0  0  0  0  0
    0.7343   20.1986   18.3815 C   0  0  0  0  0  0  0  0  0  0  0  0
   -0.7436   15.3329   17.0437 C   0  0  0  0  0  0  0  0  0  0  0  0
   -1.2810   16.4979   17.7394 N   0  0  0  0  0  0  0  0  0  0  0  0
   -0.3850   16.9128   18.8349 C   0  0  0  0  0  0  0  0  0  0  0  0
   -0.6332   18.3664   19.2994 C   0  0  0  0  0  0  0  0  0  0  0  0
   -0.4803   19.3889   18.2395 N   0  0  0  0  0  0  0  0  0  0  0  0
   -0.5477   18.7751   16.8961 C   0  0  0  0  0  0  0  0  0  0  0  0
   -1.5639   17.6145   16.8166 C   0  0  0  0  0  0  0  0  0  0  0  0
 22 23  1  0  0  0
 23 24  1  0  0  0
 24 25  1  0  0  0
 25 26  1  0  0  0
 26 21  1  0  0  0
 21 20  1  0  0  0
 20 19  1  0  0  0
 19  1  1  0  0  0
  1  2  1  0  0  0
  2  3  2  0  0  0
  3  4  1  0  0  0
  4  5  2  0  0  0
  5  6  1  0  0  0
  6  7  2  0  0  0
  7  8  1  0  0  0
  8  9  1  0  0  0
  9 10  2  0  0  0
 10 11  1  0  0  0
 11 12  2  0  0  0
 12 15  1  0  0  0
 15 16  1  0  0  0
 15 17  1  0  0  0
 15 18  1  0  0  0
 12 13  1  0  0  0
 13 14  2  0  0  0
 26 27  1  0  0  0
 27 28  1  0  0  0
 28 23  1  0  0  0
 10  1  1  0  0  0
  7  2  1  0  0  0
 14  9  1  0  0  0
M  END
> <minimizedAffinity>
-9.14155

$$$$
OCNT-0022254


 24 26  0  0  0  0  0  0  0  0999 V2000
    3.2907   18.7731   20.3104 N   0  0  0  0  0  0  0  0  0  0  0  0
    4.3021   19.6714   20.7526 C   0  0  0  0  0  0  0  0  0  0  0  0
    5.4561   19.2274   21.4250 C   0  0  0  0  0  0  0  0  0  0  0  0
    6.4267   20.1485   21.8550 C   0  0  0  0  0  0  0  0  0  0  0  0
    6.2555   21.5152   21.6471 C   0  0  0  0  0  0  0  0  0  0  0  0
    5.1078   21.9727   21.0145 C   0  0  0  0  0  0  0  0  0  0  0  0
    4.1419   21.0612   20.5796 C   0  0  0  0  0  0  0  0  0  0  0  0
    5.7894   17.5050   21.7336 S   0  0  0  0  0  0  0  0  0  0  0  0
    4.1900   16.7719   21.4594 C   0  0  0  0  0  0  0  0  0  0  0  0
    4.0103   15.4548   21.9128 C   0  0  0  0  0  0  0  0  0  0  0  0
    2.7985   14.7918   21.7234 C   0  0  0  0  0  0  0  0  0  0  0  0
    1.7370   15.4413   21.0898 C   0  0  0  0  0  0  0  0  0  0  0  0
    1.9271   16.7554   20.6284 C   0  0  0  0  0  0  0  0  0  0  0  0
    3.1517   17.4381   20.7836 C   0  0  0  0  0  0  0  0  0  0  0  0
    0.4225   14.7355   20.8715 C   0  0  0  0  0  0  0  0  0  0  0  0
   -0.5455   15.5806   20.4204 F   0  0  0  0  0  0  0  0  0  0  0  0
   -0.0787   14.1637   22.0017 F   0  0  0  0  0  0  0  0  0  0  0  0
    0.5008   13.7332   19.9523 F   0  0  0  0  0  0  0  0  0  0  0  0
    2.8930   18.9582   18.8856 C   0  0  0  0  0  0  0  0  0  0  0  0
    1.4942   19.5810   18.7630 C   0  0  0  0  0  0  0  0  0  0  0  0
    0.7196   19.0394   17.5552 C   0  0  0  0  0  0  0  0  0  0  0  0
   -1.6421   18.7298   17.2074 C   0  0  0  0  0  0  0  0  0  0  0  0
   -0.4562   18.2257   17.9072 N   0  0  0  0  0  0  0  0  0  0  0  0
   -0.2608   16.8104   17.5778 C   0  0  0  0  0  0  0  0  0  0  0  0
 22 23  1  0  0  0
 23 24  1  0  0  0
 23 21  1  0  0  0
 21 20  1  0  0  0
 20 19  1  0  0  0
 19  1  1  0  0  0
  1  2  1  0  0  0
  2  3  1  0  0  0
  3  4  2  0  0  0
  4  5  1  0  0  0
  5  6  2  0  0  0
  6  7  1  0  0  0
  3  8  1  0  0  0
  8  9  1  0  0  0
  9 10  1  0  0  0
 10 11  2  0  0  0
 11 12  1  0  0  0
 12 15  1  0  0  0
 15 16  1  0  0  0
 15 17  1  0  0  0
 15 18  1  0  0  0
 12 13  2  0  0  0
 13 14  1  0  0  0
 14  1  1  0  0  0
  7  2  2  0  0  0
 14  9  2  0  0  0
M  END
> <minimizedAffinity>
-10.10192

$$$$
OCNT-0022266


 20 22  0  0  0  0  0  0  0  0999 V2000
    2.4054   17.7685   19.7886 N   0  0  0  0  0  0  0  0  0  0  0  0
    1.9965   16.5217   20.3659 C   0  0  0  0  0  0  0  0  0  0  0  0
    0.9023   15.7718   19.8671 C   0  0  0  0  0  0  0  0  0  0  0  0
    0.4946   14.5525   20.4247 C   0  0  0  0  0  0  0  0  0  0  0  0
    1.1693   14.0298   21.5119 C   0  0  0  0  0  0  0  0  0  0  0  0
    2.2471   14.7329   22.0336 C   0  0  0  0  0  0  0  0  0  0  0  0
    2.6611   15.9615   21.4753 C   0  0  0  0  0  0  0  0  0  0  0  0
    4.0545   16.7071   22.2784 S   0  0  0  0  0  0  0  0  0  0  0  0
    4.3021   18.1865   21.3312 C   0  0  0  0  0  0  0  0  0  0  0  0
    5.3851   18.9823   21.7640 C   0  0  0  0  0  0  0  0  0  0  0  0
    5.7030   20.1742   21.1285 C   0  0  0  0  0  0  0  0  0  0  0  0
    4.9352   20.5809   20.0540 C   0  0  0  0  0  0  0  0  0  0  0  0
    3.8593   19.7926   19.6212 C   0  0  0  0  0  0  0  0  0  0  0  0
    3.5012   18.5682   20.2341 C   0  0  0  0  0  0  0  0  0  0  0  0
    1.6424   18.2217   18.5914 C   0  0  0  0  0  0  0  0  0  0  0  0
    0.6832   20.5210   19.2447 C   0  0  0  0  0  0  0  0  0  0  0  0
    0.3624   19.0478   18.9538 C   0  0  0  0  0  0  0  0  0  0  0  0
   -0.6917   18.8464   17.9214 N   0  0  0  0  0  0  0  0  0  0  0  0
   -1.4890   17.6341   18.0999 C   0  0  0  0  0  0  0  0  0  0  0  0
   -0.1517   18.9035   16.5620 C   0  0  0  0  0  0  0  0  0  0  0  0
 16 17  1  0  0  0
 17 15  1  0  0  0
 15  1  1  0  0  0
  1  2  1  0  0  0
  2  3  2  0  0  0
  3  4  1  0  0  0
  4  5  2  0  0  0
  5  6  1  0  0  0
  6  7  2  0  0  0
  7  8  1  0  0  0
  8  9  1  0  0  0
  9 10  2  0  0  0
 10 11  1  0  0  0
 11 12  2  0  0  0
 12 13  1  0  0  0
 13 14  2  0  0  0
 17 18  1  0  0  0
 18 19  1  0  0  0
 18 20  1  0  0  0
 14  1  1  0  0  0
  7  2  1  0  0  0
 14  9  1  0  0  0
M  END
> <minimizedAffinity>
-9.87192

$$$$
OCNT-0022268


 25 28  0  0  0  0  0  0  0  0999 V2000
    3.7293   18.8267   20.4900 N   0  0  0  0  0  0  0  0  0  0  0  0
    4.7454   19.6440   21.0503 C   0  0  0  0  0  0  0  0  0  0  0  0
    4.6530   21.0500   21.0091 C   0  0  0  0  0  0  0  0  0  0  0  0
    5.6400   21.8712   21.5629 C   0  0  0  0  0  0  0  0  0  0  0  0
    6.7404   21.3045   22.1903 C   0  0  0  0  0  0  0  0  0  0  0  0
    6.8403   19.9187   22.2798 C   0  0  0  0  0  0  0  0  0  0  0  0
    5.8471   19.0897   21.7316 C   0  0  0  0  0  0  0  0  0  0  0  0
    6.0746   17.3309   21.9109 S   0  0  0  0  0  0  0  0  0  0  0  0
    4.4274   16.7300   21.5909 C   0  0  0  0  0  0  0  0  0  0  0  0
    4.1388   15.4191   22.0075 C   0  0  0  0  0  0  0  0  0  0  0  0
    2.8858   14.8583   21.7721 C   0  0  0  0  0  0  0  0  0  0  0  0
    1.9179   15.6105   21.1216 C   0  0  0  0  0  0  0  0  0  0  0  0
    0.3604   14.9351   20.8376 Cl  0  0  0  0  0  0  0  0  0  0  0  0
    2.1954   16.9122   20.6990 C   0  0  0  0  0  0  0  0  0  0  0  0
    3.4601   17.4974   20.9089 C   0  0  0  0  0  0  0  0  0  0  0  0
    3.1928   19.2424   19.1694 C   0  0  0  0  0  0  0  0  0  0  0  0
    2.2665   20.4683   19.2339 C   0  0  0  0  0  0  0  0  0  0  0  0
    0.7872   20.2103   18.9027 C   0  0  0  0  0  0  0  0  0  0  0  0
   -1.1262   15.1949   16.9165 C   0  0  0  0  0  0  0  0  0  0  0  0
   -0.4524   16.3378   17.5167 N   0  0  0  0  0  0  0  0  0  0  0  0
   -0.0271   17.3197   16.5003 C   0  0  0  0  0  0  0  0  0  0  0  0
    0.0702   18.7907   16.9936 C   0  0  0  0  0  0  0  0  0  0  0  0
    0.4165   18.8875   18.4049 N   0  0  0  0  0  0  0  0  0  0  0  0
   -0.5054   18.1354   19.2674 C   0  0  0  0  0  0  0  0  0  0  0  0
   -1.2601   16.9768   18.5600 C   0  0  0  0  0  0  0  0  0  0  0  0
 19 20  1  0  0  0
 20 21  1  0  0  0
 21 22  1  0  0  0
 22 23  1  0  0  0
 23 18  1  0  0  0
 18 17  1  0  0  0
 17 16  1  0  0  0
 16  1  1  0  0  0
  1  2  1  0  0  0
  2  3  2  0  0  0
  3  4  1  0  0  0
  4  5  2  0  0  0
  5  6  1  0  0  0
  6  7  2  0  0  0
  7  8  1  0  0  0
  8  9  1  0  0  0
  9 10  1  0  0  0
 10 11  2  0  0  0
 11 12  1  0  0  0
 12 13  1  0  0  0
 12 14  2  0  0  0
 14 15  1  0  0  0
 23 24  1  0  0  0
 24 25  1  0  0  0
 25 20  1  0  0  0
 15  1  1  0  0  0
  7  2  1  0  0  0
 15  9  2  0  0  0
M  END
> <minimizedAffinity>
-8.86535

$$$$
OCNT-0022269


 30 33  0  0  0  0  0  0  0  0999 V2000
    0.5586   18.1851   18.9678 C   0  0  0  0  0  0  0  0  0  0  0  0
    0.2984   19.4872   18.5590 C   0  0  0  0  0  0  0  0  0  0  0  0
    1.2450   20.4769   18.8073 C   0  0  0  0  0  0  0  0  0  0  0  0
    2.4583   20.1826   19.4608 C   0  0  0  0  0  0  0  0  0  0  0  0
    3.5615   21.5593   19.6628 S   0  0  0  0  0  0  0  0  0  0  0  0
    4.8184   20.8857   20.7223 C   0  0  0  0  0  0  0  0  0  0  0  0
    4.9192   19.5160   21.0405 C   0  0  0  0  0  0  0  0  0  0  0  0
    5.9916   19.1543   21.8886 C   0  0  0  0  0  0  0  0  0  0  0  0
    6.9149   20.0855   22.3806 C   0  0  0  0  0  0  0  0  0  0  0  0
    6.7960   21.4222   22.0430 C   0  0  0  0  0  0  0  0  0  0  0  0
    5.7513   21.8193   21.2177 C   0  0  0  0  0  0  0  0  0  0  0  0
    3.9780   18.5619   20.5523 N   0  0  0  0  0  0  0  0  0  0  0  0
    2.7583   18.8720   19.8820 C   0  0  0  0  0  0  0  0  0  0  0  0
    1.7708   17.8937   19.6198 C   0  0  0  0  0  0  0  0  0  0  0  0
   -0.0570   15.6869   19.2058 C   0  0  0  0  0  0  0  0  0  0  0  0
   -0.4065   17.0717   18.7270 C   0  0  0  0  0  0  0  0  0  0  0  0
   -1.4718   17.2982   18.1569 O   0  0  0  0  0  0  0  0  0  0  0  0
    4.3414   17.1293   20.6705 C   0  0  0  0  0  0  0  0  0  0  0  0
    3.7342   16.4879   21.9272 C   0  0  0  0  0  0  0  0  0  0  0  0
    3.1142   15.1279   21.5854 C   0  0  0  0  0  0  0  0  0  0  0  0
    1.8336   14.9026   22.2679 N   0  0  0  0  0  0  0  0  0  0  0  0
    1.0535   13.8596   21.5792 C   0  0  0  0  0  0  0  0  0  0  0  0
   -0.0192   13.1877   22.4513 C   0  0  0  0  0  0  0  0  0  0  0  0
   -0.5619   14.1473   23.5129 C   0  0  0  0  0  0  0  0  0  0  0  0
    0.6015   14.6661   24.3848 C   0  0  0  0  0  0  0  0  0  0  0  0
    1.9698   14.6044   23.6919 C   0  0  0  0  0  0  0  0  0  0  0  0
   -1.6525   13.5189   24.4024 C   0  0  0  0  0  0  0  0  0  0  0  0
   -1.9162   12.0389   24.1420 C   0  0  0  0  0  0  0  0  0  0  0  0
   -3.3127   11.7906   24.1050 O   0  0  0  0  0  0  0  0  0  0  0  0
   -3.4323   10.8404   23.9380 H   0  0  0  0  0  0  0  0  0  0  0  0
 15 16  1  0  0  0
 16 17  2  0  0  0
 16  1  1  0  0  0
  1  2  1  0  0  0
  2  3  2  0  0  0
  3  4  1  0  0  0
  4  5  1  0  0  0
  5  6  1  0  0  0
  6  7  1  0  0  0
  7  8  2  0  0  0
  8  9  1  0  0  0
  9 10  2  0  0  0
 10 11  1  0  0  0
  7 12  1  0  0  0
 12 18  1  0  0  0
 18 19  1  0  0  0
 19 20  1  0  0  0
 20 21  1  0  0  0
 21 22  1  0  0  0
 22 23  1  0  0  0
 23 24  1  0  0  0
 24 27  1  0  0  0
 27 28  1  0  0  0
 28 29  1  0  0  0
 24 25  1  0  0  0
 25 26  1  0  0  0
 12 13  1  0  0  0
 13 14  1  0  0  0
 14  1  2  0  0  0
 13  4  2  0  0  0
 11  6  2  0  0  0
 26 21  1  0  0  0
 29 30  1  0  0  0
M  END
> <minimizedAffinity>
-8.40178

$$$$
OCNT-0022288


 31 34  0  0  0  0  0  0  0  0999 V2000
    3.6435   18.6585   20.4788 N   0  0  0  0  0  0  0  0  0  0  0  0
    4.6328   19.5876   20.9036 C   0  0  0  0  0  0  0  0  0  0  0  0
    4.4567   20.9734   20.7144 C   0  0  0  0  0  0  0  0  0  0  0  0
    5.4106   21.9055   21.1342 C   0  0  0  0  0  0  0  0  0  0  0  0
    6.5650   21.4757   21.7730 C   0  0  0  0  0  0  0  0  0  0  0  0
    6.7545   20.1159   21.9997 C   0  0  0  0  0  0  0  0  0  0  0  0
    5.7953   19.1755   21.5842 C   0  0  0  0  0  0  0  0  0  0  0  0
    6.1594   17.4637   21.9145 S   0  0  0  0  0  0  0  0  0  0  0  0
    4.5626   16.7101   21.6906 C   0  0  0  0  0  0  0  0  0  0  0  0
    4.4005   15.4131   22.2058 C   0  0  0  0  0  0  0  0  0  0  0  0
    3.1958   14.7296   22.0558 C   0  0  0  0  0  0  0  0  0  0  0  0
    2.1309   15.3324   21.3833 C   0  0  0  0  0  0  0  0  0  0  0  0
    2.2991   16.6338   20.8749 C   0  0  0  0  0  0  0  0  0  0  0  0
    3.5135   17.3414   20.9955 C   0  0  0  0  0  0  0  0  0  0  0  0
    0.8059   14.6261   21.2398 C   0  0  0  0  0  0  0  0  0  0  0  0
   -0.2426   15.4786   21.0682 F   0  0  0  0  0  0  0  0  0  0  0  0
    0.4907   13.8670   22.3268 F   0  0  0  0  0  0  0  0  0  0  0  0
    0.7798   13.7809   20.1733 F   0  0  0  0  0  0  0  0  0  0  0  0
    3.0756   18.8902   19.1224 C   0  0  0  0  0  0  0  0  0  0  0  0
    1.8265   19.7873   19.1262 C   0  0  0  0  0  0  0  0  0  0  0  0
    0.8764   19.5580   17.9431 C   0  0  0  0  0  0  0  0  0  0  0  0
   -0.4934   16.7025   17.1485 N   0  0  0  0  0  0  0  0  0  0  0  0
   -0.3165   16.7532   18.6170 C   0  0  0  0  0  0  0  0  0  0  0  0
   -0.6289   18.1334   19.2584 C   0  0  0  0  0  0  0  0  0  0  0  0
   -0.5142   19.2932   18.3560 N   0  0  0  0  0  0  0  0  0  0  0  0
   -1.3816   19.0657   17.1757 C   0  0  0  0  0  0  0  0  0  0  0  0
   -1.5987   17.5882   16.7479 C   0  0  0  0  0  0  0  0  0  0  0  0
   -0.7007   15.3277   16.6524 C   0  0  0  0  0  0  0  0  0  0  0  0
   -1.1272   13.0252   17.2878 O   0  0  0  0  0  0  0  0  0  0  0  0
   -0.8152   14.3177   17.8048 C   0  0  0  0  0  0  0  0  0  0  0  0
   -0.7018   13.0005   16.4055 H   0  0  0  0  0  0  0  0  0  0  0  0
 29 30  1  0  0  0
 30 28  1  0  0  0
 28 22  1  0  0  0
 22 23  1  0  0  0
 23 24  1  0  0  0
 24 25  1  0  0  0
 25 21  1  0  0  0
 21 20  1  0  0  0
 20 19  1  0  0  0
 19  1  1  0  0  0
  1  2  1  0  0  0
  2  3  2  0  0  0
  3  4  1  0  0  0
  4  5  2  0  0  0
  5  6  1  0  0  0
  6  7  2  0  0  0
  7  8  1  0  0  0
  8  9  1  0  0  0
  9 10  1  0  0  0
 10 11  2  0  0  0
 11 12  1  0  0  0
 12 15  1  0  0  0
 15 16  1  0  0  0
 15 17  1  0  0  0
 15 18  1  0  0  0
 12 13  2  0  0  0
 13 14  1  0  0  0
 25 26  1  0  0  0
 26 27  1  0  0  0
 27 22  1  0  0  0
 14  1  1  0  0  0
  7  2  1  0  0  0
 14  9  2  0  0  0
 29 31  1  0  0  0
M  END
> <minimizedAffinity>
-8.88596

$$$$
OCNT-0022294


 21 23  0  0  0  0  0  0  0  0999 V2000
    2.8981   18.8828   20.2312 N   0  0  0  0  0  0  0  0  0  0  0  0
    4.0603   19.6638   20.5027 C   0  0  0  0  0  0  0  0  0  0  0  0
    4.3063   20.8991   19.8596 C   0  0  0  0  0  0  0  0  0  0  0  0
    5.4502   21.6676   20.1100 C   0  0  0  0  0  0  0  0  0  0  0  0
    6.3974   21.2233   21.0158 C   0  0  0  0  0  0  0  0  0  0  0  0
    6.1956   20.0106   21.6634 C   0  0  0  0  0  0  0  0  0  0  0  0
    5.0471   19.2327   21.4126 C   0  0  0  0  0  0  0  0  0  0  0  0
    4.9324   17.7251   22.3451 S   0  0  0  0  0  0  0  0  0  0  0  0
    3.5510   16.9111   21.5811 C   0  0  0  0  0  0  0  0  0  0  0  0
    2.6885   17.5378   20.6565 C   0  0  0  0  0  0  0  0  0  0  0  0
    1.6259   16.7482   20.1607 C   0  0  0  0  0  0  0  0  0  0  0  0
    1.4263   15.4250   20.5682 C   0  0  0  0  0  0  0  0  0  0  0  0
    0.1091   14.5219   19.9249 Cl  0  0  0  0  0  0  0  0  0  0  0  0
    2.2800   14.8338   21.4829 C   0  0  0  0  0  0  0  0  0  0  0  0
    3.3405   15.5774   21.9869 C   0  0  0  0  0  0  0  0  0  0  0  0
    1.7684   19.5659   19.5582 C   0  0  0  0  0  0  0  0  0  0  0  0
    1.4343   18.9233   18.2035 C   0  0  0  0  0  0  0  0  0  0  0  0
    0.0617   19.3990   17.7115 C   0  0  0  0  0  0  0  0  0  0  0  0
   -2.0914   18.7167   16.8772 C   0  0  0  0  0  0  0  0  0  0  0  0
   -0.9579   18.3375   17.7260 N   0  0  0  0  0  0  0  0  0  0  0  0
   -0.4251   17.0460   17.2863 C   0  0  0  0  0  0  0  0  0  0  0  0
 19 20  1  0  0  0
 20 21  1  0  0  0
 20 18  1  0  0  0
 18 17  1  0  0  0
 17 16  1  0  0  0
 16  1  1  0  0  0
  1  2  1  0  0  0
  2  3  2  0  0  0
  3  4  1  0  0  0
  4  5  2  0  0  0
  5  6  1  0  0  0
  6  7  2  0  0  0
  7  8  1  0  0  0
  8  9  1  0  0  0
  9 10  2  0  0  0
 10 11  1  0  0  0
 11 12  2  0  0  0
 12 13  1  0  0  0
 12 14  1  0  0  0
 14 15  2  0  0  0
 10  1  1  0  0  0
  7  2  1  0  0  0
 15  9  1  0  0  0
M  END
> <minimizedAffinity>
-10.58972

$$$$
OCNT-0022316


 30 33  0  0  0  0  0  0  0  0999 V2000
   -0.6863   16.4056   17.5143 C   0  0  0  0  0  0  0  0  0  0  0  0
   -0.9683   15.1566   18.0917 C   0  0  0  0  0  0  0  0  0  0  0  0
   -0.1996   14.7216   19.1714 C   0  0  0  0  0  0  0  0  0  0  0  0
    0.8533   15.5229   19.6781 C   0  0  0  0  0  0  0  0  0  0  0  0
    1.6738   15.1875   20.7551 C   0  0  0  0  0  0  0  0  0  0  0  0
    1.5010   13.9939   21.4698 N   0  0  0  0  0  0  0  0  0  0  0  0
    2.6831   15.9574   21.1793 N   0  0  0  0  0  0  0  0  0  0  0  0
    2.8982   17.1179   20.5449 C   0  0  0  0  0  0  0  0  0  0  0  0
    2.1394   17.5332   19.5206 N   0  0  0  0  0  0  0  0  0  0  0  0
    1.1430   16.7510   19.0924 C   0  0  0  0  0  0  0  0  0  0  0  0
    0.3661   17.1776   18.0222 C   0  0  0  0  0  0  0  0  0  0  0  0
    2.1927   13.9983   22.2159 H   0  0  0  0  0  0  0  0  0  0  0  0
    0.5605   13.9290   21.8438 H   0  0  0  0  0  0  0  0  0  0  0  0
    3.9227   17.9325   20.9821 N   0  0  0  0  0  0  0  0  0  0  0  0
    3.6645   19.3645   21.1007 C   0  0  0  0  0  0  0  0  0  0  0  0
    4.9807   20.1343   21.3146 C   0  0  0  0  0  0  0  0  0  0  0  0
    5.7721   19.6373   22.4472 N   0  0  0  0  0  0  0  0  0  0  0  0
    6.8611   20.2990   23.0059 C   0  0  0  0  0  0  0  0  0  0  0  0
    7.5098   19.8017   23.9299 O   0  0  0  0  0  0  0  0  0  0  0  0
    5.4359   18.2920   22.9285 C   0  0  0  0  0  0  0  0  0  0  0  0
    4.9831   17.3405   21.8049 C   0  0  0  0  0  0  0  0  0  0  0  0
    7.2076   21.7041   22.4519 C   0  0  0  0  0  0  0  0  0  0  0  0
    8.2769   21.6046   21.3740 C   0  0  0  0  0  0  0  0  0  0  0  0
    7.4533   21.4345   20.1206 C   0  0  0  0  0  0  0  0  0  0  0  0
    6.2406   22.2908   20.4090 C   0  0  0  0  0  0  0  0  0  0  0  0
    6.0844   22.3455   21.8323 O   0  0  0  0  0  0  0  0  0  0  0  0
   -1.8287   18.1518   16.3462 C   0  0  0  0  0  0  0  0  0  0  0  0
   -1.4846   16.7781   16.4613 O   0  0  0  0  0  0  0  0  0  0  0  0
   -2.0061   14.4513   17.5396 O   0  0  0  0  0  0  0  0  0  0  0  0
   -1.6882   13.2981   16.7732 C   0  0  0  0  0  0  0  0  0  0  0  0
 27 28  1  0  0  0
 28  1  1  0  0  0
  1  2  1  0  0  0
  2 29  1  0  0  0
 29 30  1  0  0  0
  2  3  2  0  0  0
  3  4  1  0  0  0
  4  5  2  0  0  0
  5  6  1  0  0  0
  5  7  1  0  0  0
  7  8  2  0  0  0
  8 14  1  0  0  0
 14 15  1  0  0  0
 15 16  1  0  0  0
 16 17  1  0  0  0
 17 18  1  0  0  0
 18 19  2  0  0  0
 18 22  1  0  0  0
 22 23  1  0  0  0
 23 24  1  0  0  0
 24 25  1  0  0  0
 25 26  1  0  0  0
 17 20  1  0  0  0
 20 21  1  0  0  0
  8  9  1  0  0  0
  9 10  2  0  0  0
 10 11  1  0  0  0
 11  1  2  0  0  0
 10  4  1  0  0  0
 21 14  1  0  0  0
 26 22  1  0  0  0
  6 12  1  0  0  0
  6 13  1  0  0  0
M  END
> <minimizedAffinity>
0.05320

$$$$
OCNT-0200796


 40 42  0  0  0  0  0  0  0  0999 V2000
    2.7285   15.1761   21.4683 C   0  0  0  0  0  0  0  0  0  0  0  0
    2.3376   16.4729   21.0852 C   0  0  0  0  0  0  0  0  0  0  0  0
    3.2044   17.5750   21.1549 C   0  0  0  0  0  0  0  0  0  0  0  0
    4.5064   17.4106   21.6220 C   0  0  0  0  0  0  0  0  0  0  0  0
    4.9354   16.1376   21.9892 C   0  0  0  0  0  0  0  0  0  0  0  0
    4.0565   15.0470   21.9163 C   0  0  0  0  0  0  0  0  0  0  0  0
    5.4707   18.5383   21.7098 C   0  0  0  0  0  0  0  0  0  0  0  0
    6.6204   18.3313   22.0749 O   0  0  0  0  0  0  0  0  0  0  0  0
    4.9852   19.7868   21.3822 N   0  0  0  0  0  0  0  0  0  0  0  0
    4.0555   19.8624   20.9964 H   0  0  0  0  0  0  0  0  0  0  0  0
    5.8548   20.9581   21.2488 C   0  0  0  0  0  0  0  0  0  0  0  0
    6.0251   21.7144   22.5771 C   0  0  0  0  0  0  0  0  0  0  0  0
    5.1791   22.4012   23.1304 O   0  0  0  0  0  0  0  0  0  0  0  0
    7.2787   21.6652   23.0829 O   0  0  0  0  0  0  0  0  0  0  0  0
    7.2061   22.1566   23.9284 H   0  0  0  0  0  0  0  0  0  0  0  0
    5.4860   21.9159   20.1076 C   0  0  0  0  0  0  0  0  0  0  0  0
    3.9775   22.0624   19.9243 C   0  0  0  0  0  0  0  0  0  0  0  0
    3.3816   20.8313   19.3041 C   0  0  0  0  0  0  0  0  0  0  0  0
    3.9917   19.9202   18.7718 O   0  0  0  0  0  0  0  0  0  0  0  0
    2.0368   20.8187   19.3552 O   0  0  0  0  0  0  0  0  0  0  0  0
    1.7948   19.9697   18.9289 H   0  0  0  0  0  0  0  0  0  0  0  0
    2.3651   12.7373   21.6923 C   0  0  0  0  0  0  0  0  0  0  0  0
    1.8713   14.0803   21.3822 N   0  0  0  0  0  0  0  0  0  0  0  0
    0.4113   14.2395   21.2661 C   0  0  0  0  0  0  0  0  0  0  0  0
   -0.0016   14.9819   20.0127 C   0  0  0  0  0  0  0  0  0  0  0  0
   -0.3826   14.3041   18.8682 C   0  0  0  0  0  0  0  0  0  0  0  0
   -0.7795   14.9331   17.7358 N   0  0  0  0  0  0  0  0  0  0  0  0
   -0.7872   16.2704   17.7290 C   0  0  0  0  0  0  0  0  0  0  0  0
   -1.1518   16.8729   16.6022 N   0  0  0  0  0  0  0  0  0  0  0  0
   -1.1452   18.2001   16.5811 C   0  0  0  0  0  0  0  0  0  0  0  0
   -1.5146   18.8194   15.4075 N   0  0  0  0  0  0  0  0  0  0  0  0
   -0.8381   18.9771   17.6159 N   0  0  0  0  0  0  0  0  0  0  0  0
   -0.4708   18.3495   18.7423 C   0  0  0  0  0  0  0  0  0  0  0  0
   -0.1988   19.1941   19.8325 N   0  0  0  0  0  0  0  0  0  0  0  0
   -0.4152   16.9660   18.8860 C   0  0  0  0  0  0  0  0  0  0  0  0
   -0.0201   16.3370   20.0379 N   0  0  0  0  0  0  0  0  0  0  0  0
   -2.0746   18.1968   14.8395 H   0  0  0  0  0  0  0  0  0  0  0  0
   -1.8794   19.7442   15.5887 H   0  0  0  0  0  0  0  0  0  0  0  0
    0.6289   18.8898   20.3352 H   0  0  0  0  0  0  0  0  0  0  0  0
   -0.1643   20.1561   19.5077 H   0  0  0  0  0  0  0  0  0  0  0  0
 22 23  1  0  0  0
 23 24  1  0  0  0
 24 25  1  0  0  0
 25 26  1  0  0  0
 26 27  2  0  0  0
 27 28  1  0  0  0
 28 29  2  0  0  0
 29 30  1  0  0  0
 30 31  1  0  0  0
 30 32  2  0  0  0
 32 33  1  0  0  0
 33 34  1  0  0  0
 33 35  2  0  0  0
 35 36  1  0  0  0
 23  1  1  0  0  0
  1  2  1  0  0  0
  2  3  2  0  0  0
  3  4  1  0  0  0
  4  7  1  0  0  0
  7  8  2  0  0  0
  7  9  1  0  0  0
  9 11  1  0  0  0
 11 16  1  0  0  0
 16 17  1  0  0  0
 17 18  1  0  0  0
 18 19  2  0  0  0
 18 20  1  0  0  0
 11 12  1  0  0  0
 12 13  2  0  0  0
 12 14  1  0  0  0
  4  5  2  0  0  0
  5  6  1  0  0  0
 36 25  2  0  0  0
  6  1  2  0  0  0
 35 28  1  0  0  0
 31 37  1  0  0  0
 31 38  1  0  0  0
 34 39  1  0  0  0
 34 40  1  0  0  0
  9 10  1  0  0  0
 20 21  1  0  0  0
 14 15  1  0  0  0
M  END
> <minimizedAffinity>
-6.14479

$$$$
OCNT-0283087


 23 26  0  0  0  0  0  0  0  0999 V2000
   -0.5764   14.7505   18.4080 C   0  0  0  0  0  0  0  0  0  0  0  0
   -0.7489   15.9817   17.7807 C   0  0  0  0  0  0  0  0  0  0  0  0
   -0.0015   17.0988   18.1804 C   0  0  0  0  0  0  0  0  0  0  0  0
    0.9277   16.9779   19.2308 C   0  0  0  0  0  0  0  0  0  0  0  0
    1.8255   17.8812   19.8543 C   0  0  0  0  0  0  0  0  0  0  0  0
    2.4993   17.2124   20.8643 C   0  0  0  0  0  0  0  0  0  0  0  0
    2.0638   15.8995   20.8201 N   0  0  0  0  0  0  0  0  0  0  0  0
    2.5617   14.8449   21.6813 C   0  0  0  0  0  0  0  0  0  0  0  0
    1.0914   15.7404   19.8516 C   0  0  0  0  0  0  0  0  0  0  0  0
    0.3494   14.6156   19.4511 C   0  0  0  0  0  0  0  0  0  0  0  0
    3.5421   17.6969   21.7500 C   0  0  0  0  0  0  0  0  0  0  0  0
    3.6507   17.2503   22.8914 O   0  0  0  0  0  0  0  0  0  0  0  0
    4.4076   18.6928   21.2849 N   0  0  0  0  0  0  0  0  0  0  0  0
    4.3183   19.3343   19.9645 C   0  0  0  0  0  0  0  0  0  0  0  0
    4.6808   20.8152   20.0181 C   0  0  0  0  0  0  0  0  0  0  0  0
    5.9194   20.9888   20.7359 N   0  0  0  0  0  0  0  0  0  0  0  0
    6.8210   21.9975   20.6168 C   0  0  0  0  0  0  0  0  0  0  0  0
    7.8357   21.8180   21.4331 N   0  0  0  0  0  0  0  0  0  0  0  0
    7.5650   20.6489   22.1023 C   0  0  0  0  0  0  0  0  0  0  0  0
    6.3699   20.1081   21.6799 C   0  0  0  0  0  0  0  0  0  0  0  0
    5.6367   18.8771   22.0619 C   0  0  0  0  0  0  0  0  0  0  0  0
   -1.6232   13.4091   16.7434 C   0  0  0  0  0  0  0  0  0  0  0  0
   -1.2460   13.5949   18.1015 O   0  0  0  0  0  0  0  0  0  0  0  0
 22 23  1  0  0  0
 23  1  1  0  0  0
  1  2  2  0  0  0
  2  3  1  0  0  0
  3  4  2  0  0  0
  4  5  1  0  0  0
  5  6  2  0  0  0
  6 11  1  0  0  0
 11 12  2  0  0  0
 11 13  1  0  0  0
 13 14  1  0  0  0
 14 15  1  0  0  0
 15 16  1  0  0  0
 16 17  1  0  0  0
 17 18  2  0  0  0
 18 19  1  0  0  0
 19 20  2  0  0  0
 20 21  1  0  0  0
  6  7  1  0  0  0
  7  8  1  0  0  0
  7  9  1  0  0  0
  9 10  2  0  0  0
 10  1  1  0  0  0
  9  4  1  0  0  0
 21 13  1  0  0  0
 20 16  1  0  0  0
M  END
> <minimizedAffinity>
-6.89441

$$$$
OCNT-0294781


 22 25  0  0  0  0  0  0  0  0999 V2000
    3.1912   17.7145   21.0594 C   0  0  0  0  0  0  0  0  0  0  0  0
    3.2463   16.9860   22.0483 O   0  0  0  0  0  0  0  0  0  0  0  0
    4.1377   18.7158   20.8207 N   0  0  0  0  0  0  0  0  0  0  0  0
    4.1634   19.5681   19.6093 C   0  0  0  0  0  0  0  0  0  0  0  0
    4.5571   21.0243   19.9054 C   0  0  0  0  0  0  0  0  0  0  0  0
    5.7370   21.0379   20.7972 C   0  0  0  0  0  0  0  0  0  0  0  0
    6.5698   22.0721   20.9261 N   0  0  0  0  0  0  0  0  0  0  0  0
    7.4574   21.6408   21.8416 N   0  0  0  0  0  0  0  0  0  0  0  0
    7.2149   20.3685   22.2802 C   0  0  0  0  0  0  0  0  0  0  0  0
    6.0880   19.9444   21.6141 C   0  0  0  0  0  0  0  0  0  0  0  0
    5.3444   18.6604   21.6589 C   0  0  0  0  0  0  0  0  0  0  0  0
    8.2048   22.2685   22.1191 H   0  0  0  0  0  0  0  0  0  0  0  0
   -0.1109   18.8275   17.5261 C   0  0  0  0  0  0  0  0  0  0  0  0
    0.6246   18.0719   18.5157 N   0  0  0  0  0  0  0  0  0  0  0  0
    1.6535   18.5695   19.2677 C   0  0  0  0  0  0  0  0  0  0  0  0
    2.1094   17.5627   20.0987 C   0  0  0  0  0  0  0  0  0  0  0  0
    1.2840   16.4172   19.8602 C   0  0  0  0  0  0  0  0  0  0  0  0
    0.3776   16.7571   18.8506 C   0  0  0  0  0  0  0  0  0  0  0  0
   -0.5712   15.8443   18.3623 C   0  0  0  0  0  0  0  0  0  0  0  0
   -0.6000   14.5635   18.9211 C   0  0  0  0  0  0  0  0  0  0  0  0
    0.2821   14.2047   19.9355 C   0  0  0  0  0  0  0  0  0  0  0  0
    1.2243   15.1204   20.4146 C   0  0  0  0  0  0  0  0  0  0  0  0
 13 14  1  0  0  0
 14 15  1  0  0  0
 15 16  2  0  0  0
 16  1  1  0  0  0
  1  2  2  0  0  0
  1  3  1  0  0  0
  3  4  1  0  0  0
  4  5  1  0  0  0
  5  6  1  0  0  0
  6  7  2  0  0  0
  7  8  1  0  0  0
  8  9  1  0  0  0
  9 10  2  0  0  0
 10 11  1  0  0  0
 16 17  1  0  0  0
 17 18  1  0  0  0
 18 19  2  0  0  0
 19 20  1  0  0  0
 20 21  2  0  0  0
 21 22  1  0  0  0
 18 14  1  0  0  0
 11  3  1  0  0  0
 22 17  2  0  0  0
 10  6  1  0  0  0
  8 12  1  0  0  0
M  END
> <minimizedAffinity>
-11.42584

$$$$
OCNT-0381046


 27 28  0  0  0  0  0  0  0  0999 V2000
    1.9765   16.4513   20.4391 C   0  0  0  0  0  0  0  0  0  0  0  0
    0.7833   15.7434   20.2724 C   0  0  0  0  0  0  0  0  0  0  0  0
    0.5922   14.5208   20.9216 C   0  0  0  0  0  0  0  0  0  0  0  0
    1.5805   14.0092   21.7615 C   0  0  0  0  0  0  0  0  0  0  0  0
    2.7568   14.7281   21.9689 C   0  0  0  0  0  0  0  0  0  0  0  0
    2.9481   15.9552   21.3196 C   0  0  0  0  0  0  0  0  0  0  0  0
    4.2007   16.7104   21.5676 C   0  0  0  0  0  0  0  0  0  0  0  0
    5.2451   16.3709   21.0167 O   0  0  0  0  0  0  0  0  0  0  0  0
    4.1357   17.8598   22.5563 C   0  0  0  0  0  0  0  0  0  0  0  0
    5.4945   18.5351   22.7322 C   0  0  0  0  0  0  0  0  0  0  0  0
    5.6526   19.7464   21.8441 C   0  0  0  0  0  0  0  0  0  0  0  0
    4.6022   20.1589   21.0142 C   0  0  0  0  0  0  0  0  0  0  0  0
    4.7362   21.2933   20.2134 C   0  0  0  0  0  0  0  0  0  0  0  0
    5.9210   22.0257   20.2335 C   0  0  0  0  0  0  0  0  0  0  0  0
    6.9719   21.6256   21.0563 C   0  0  0  0  0  0  0  0  0  0  0  0
    6.8384   20.4922   21.8602 C   0  0  0  0  0  0  0  0  0  0  0  0
    2.1868   17.6714   19.8633 O   0  0  0  0  0  0  0  0  0  0  0  0
    1.1006   18.6009   19.9053 C   0  0  0  0  0  0  0  0  0  0  0  0
    1.1920   19.6330   18.7723 C   0  0  0  0  0  0  0  0  0  0  0  0
    0.9547   20.9399   19.3175 O   0  0  0  0  0  0  0  0  0  0  0  0
    1.0504   21.5717   18.5838 H   0  0  0  0  0  0  0  0  0  0  0  0
    0.2466   19.3677   17.5714 C   0  0  0  0  0  0  0  0  0  0  0  0
   -1.1707   19.0742   17.8364 N   0  0  0  0  0  0  0  0  0  0  0  0
   -1.7511   19.6948   17.2730 H   0  0  0  0  0  0  0  0  0  0  0  0
   -1.5885   17.6917   17.6193 C   0  0  0  0  0  0  0  0  0  0  0  0
   -0.8398   15.2735   17.3220 C   0  0  0  0  0  0  0  0  0  0  0  0
   -0.4769   16.7425   17.1603 C   0  0  0  0  0  0  0  0  0  0  0  0
 26 27  1  0  0  0
 27 25  1  0  0  0
 25 23  1  0  0  0
 23 22  1  0  0  0
 22 19  1  0  0  0
 19 20  1  0  0  0
 19 18  1  0  0  0
 18 17  1  0  0  0
 17  1  1  0  0  0
  1  2  2  0  0  0
  2  3  1  0  0  0
  3  4  2  0  0  0
  4  5  1  0  0  0
  5  6  2  0  0  0
  6  7  1  0  0  0
  7  8  2  0  0  0
  7  9  1  0  0  0
  9 10  1  0  0  0
 10 11  1  0  0  0
 11 12  2  0  0  0
 12 13  1  0  0  0
 13 14  2  0  0  0
 14 15  1  0  0  0
 15 16  2  0  0  0
  6  1  1  0  0  0
 16 11  1  0  0  0
 23 24  1  0  0  0
 20 21  1  0  0  0
M  END
> <minimizedAffinity>
-9.99708

$$$$
OCNT-0436875


 27 29  0  0  0  0  0  0  0  0999 V2000
    1.6589   14.9471   21.1009 O   0  0  0  0  0  0  0  0  0  0  0  0
    1.8650   16.0473   20.5937 C   0  0  0  0  0  0  0  0  0  0  0  0
    2.9959   16.8870   21.0502 C   0  0  0  0  0  0  0  0  0  0  0  0
    3.7879   16.3843   22.0650 O   0  0  0  0  0  0  0  0  0  0  0  0
    3.1795   18.0870   20.4700 C   0  0  0  0  0  0  0  0  0  0  0  0
    2.3621   18.6020   19.4716 O   0  0  0  0  0  0  0  0  0  0  0  0
    1.3141   17.8419   19.0167 C   0  0  0  0  0  0  0  0  0  0  0  0
    0.5327   18.3903   17.9977 C   0  0  0  0  0  0  0  0  0  0  0  0
   -0.5460   17.6621   17.5019 C   0  0  0  0  0  0  0  0  0  0  0  0
   -1.3366   18.1561   16.5069 O   0  0  0  0  0  0  0  0  0  0  0  0
   -0.8541   16.4019   18.0074 C   0  0  0  0  0  0  0  0  0  0  0  0
   -0.0710   15.8598   19.0225 C   0  0  0  0  0  0  0  0  0  0  0  0
   -0.4205   14.6186   19.4802 O   0  0  0  0  0  0  0  0  0  0  0  0
    1.0151   16.5806   19.5269 C   0  0  0  0  0  0  0  0  0  0  0  0
    3.4090   15.5073   22.2835 H   0  0  0  0  0  0  0  0  0  0  0  0
   -1.0042   19.0271   16.2334 H   0  0  0  0  0  0  0  0  0  0  0  0
    0.2085   14.3572   20.1885 H   0  0  0  0  0  0  0  0  0  0  0  0
    4.2698   19.0065   20.8523 C   0  0  0  0  0  0  0  0  0  0  0  0
    5.1674   18.6387   21.8729 C   0  0  0  0  0  0  0  0  0  0  0  0
    6.1963   19.4985   22.2742 C   0  0  0  0  0  0  0  0  0  0  0  0
    6.3211   20.7355   21.6570 C   0  0  0  0  0  0  0  0  0  0  0  0
    7.3028   21.6218   22.0037 O   0  0  0  0  0  0  0  0  0  0  0  0
    5.4327   21.1126   20.6539 C   0  0  0  0  0  0  0  0  0  0  0  0
    5.5590   22.3356   20.0584 O   0  0  0  0  0  0  0  0  0  0  0  0
    4.4112   20.2638   20.2475 C   0  0  0  0  0  0  0  0  0  0  0  0
    7.8481   21.2137   22.6980 H   0  0  0  0  0  0  0  0  0  0  0  0
    6.3359   22.7407   20.4924 H   0  0  0  0  0  0  0  0  0  0  0  0
  1  2  2  0  0  0
  2  3  1  0  0  0
  3  4  1  0  0  0
  3  5  2  0  0  0
  5 18  1  0  0  0
 18 19  1  0  0  0
 19 20  2  0  0  0
 20 21  1  0  0  0
 21 22  1  0  0  0
 21 23  2  0  0  0
 23 24  1  0  0  0
 23 25  1  0  0  0
  5  6  1  0  0  0
  6  7  1  0  0  0
  7  8  2  0  0  0
  8  9  1  0  0  0
  9 10  1  0  0  0
  9 11  2  0  0  0
 11 12  1  0  0  0
 12 13  1  0  0  0
 12 14  2  0  0  0
 14  2  1  0  0  0
 25 18  2  0  0  0
 14  7  1  0  0  0
  4 15  1  0  0  0
 22 26  1  0  0  0
 24 27  1  0  0  0
 10 16  1  0  0  0
 13 17  1  0  0  0
M  END
> <minimizedAffinity>
-11.60160

$$$$
OCNT-0476578


 20 22  0  0  0  0  0  0  0  0999 V2000
   -0.0213   15.5595   18.8555 C   0  0  0  0  0  0  0  0  0  0  0  0
    0.3304   14.7675   19.9573 C   0  0  0  0  0  0  0  0  0  0  0  0
    1.3321   15.1508   20.8589 C   0  0  0  0  0  0  0  0  0  0  0  0
    2.0386   16.3407   20.6939 C   0  0  0  0  0  0  0  0  0  0  0  0
    3.0223   16.6271   21.6501 N   0  0  0  0  0  0  0  0  0  0  0  0
    3.7482   17.6918   21.5707 C   0  0  0  0  0  0  0  0  0  0  0  0
    4.7579   17.8672   22.6427 C   0  0  0  0  0  0  0  0  0  0  0  0
    5.6015   18.9010   22.6965 C   0  0  0  0  0  0  0  0  0  0  0  0
    5.5861   19.9764   21.6647 C   0  0  0  0  0  0  0  0  0  0  0  0
    6.4115   20.9864   21.6940 N   0  0  0  0  0  0  0  0  0  0  0  0
    6.3265   22.1293   20.7277 C   0  0  0  0  0  0  0  0  0  0  0  0
    7.5205   21.0934   22.6971 C   0  0  0  0  0  0  0  0  0  0  0  0
    4.5534   19.8108   20.5976 C   0  0  0  0  0  0  0  0  0  0  0  0
    3.7089   18.7687   20.5460 C   0  0  0  0  0  0  0  0  0  0  0  0
    2.5588   18.6836   19.2647 S   0  0  0  0  0  0  0  0  0  0  0  0
    1.7265   17.1472   19.6005 C   0  0  0  0  0  0  0  0  0  0  0  0
    0.7135   16.7496   18.7025 C   0  0  0  0  0  0  0  0  0  0  0  0
   -1.4670   16.1282   16.9321 C   0  0  0  0  0  0  0  0  0  0  0  0
   -1.0053   15.1741   17.9407 N   0  0  0  0  0  0  0  0  0  0  0  0
   -1.1192   13.7634   17.5695 C   0  0  0  0  0  0  0  0  0  0  0  0
 18 19  1  0  0  0
 19 20  1  0  0  0
 19  1  1  0  0  0
  1  2  1  0  0  0
  2  3  2  0  0  0
  3  4  1  0  0  0
  4  5  1  0  0  0
  5  6  2  0  0  0
  6  7  1  0  0  0
  7  8  2  0  0  0
  8  9  1  0  0  0
  9 10  2  0  0  0
 10 11  1  0  0  0
 10 12  1  0  0  0
  9 13  1  0  0  0
 13 14  2  0  0  0
 14 15  1  0  0  0
 15 16  1  0  0  0
 16 17  1  0  0  0
 17  1  2  0  0  0
 16  4  2  0  0  0
 14  6  1  0  0  0
M  CHG 1  10   1
M  END
> <minimizedAffinity>
-7.00818

$$$$
OCNT-0476778


 15 17  0  0  0  0  0  0  0  0999 V2000
    1.0071   14.1316   21.1676 C   0  0  0  0  0  0  0  0  0  0  0  0
    0.2971   14.8248   20.1834 C   0  0  0  0  0  0  0  0  0  0  0  0
    0.7034   16.0920   19.7483 C   0  0  0  0  0  0  0  0  0  0  0  0
    1.8484   16.6206   20.3478 C   0  0  0  0  0  0  0  0  0  0  0  0
    2.5221   17.8022   20.1781 N   0  0  0  0  0  0  0  0  0  0  0  0
    3.5980   17.8175   21.0302 C   0  0  0  0  0  0  0  0  0  0  0  0
    3.6479   16.7061   21.7370 N   0  0  0  0  0  0  0  0  0  0  0  0
    2.5748   15.9556   21.3282 C   0  0  0  0  0  0  0  0  0  0  0  0
    2.1528   14.6874   21.7512 C   0  0  0  0  0  0  0  0  0  0  0  0
    2.2696   18.5358   19.5358 H   0  0  0  0  0  0  0  0  0  0  0  0
    4.6289   18.9962   21.1483 C   0  0  0  0  0  0  0  0  0  0  0  0
    4.5484   20.1573   20.4050 C   0  0  0  0  0  0  0  0  0  0  0  0
    5.8486   21.2040   20.8115 S   0  0  0  0  0  0  0  0  0  0  0  0
    6.4081   20.0359   21.9346 C   0  0  0  0  0  0  0  0  0  0  0  0
    5.6991   18.9344   22.0238 N   0  0  0  0  0  0  0  0  0  0  0  0
  1  2  2  0  0  0
  2  3  1  0  0  0
  3  4  2  0  0  0
  4  5  1  0  0  0
  5  6  1  0  0  0
  6 11  1  0  0  0
 11 12  2  0  0  0
 12 13  1  0  0  0
 13 14  1  0  0  0
 14 15  2  0  0  0
  6  7  2  0  0  0
  7  8  1  0  0  0
  8  9  2  0  0  0
  9  1  1  0  0  0
  8  4  1  0  0  0
 15 11  1  0  0  0
  5 10  1  0  0  0
M  END
> <minimizedAffinity>
-8.92718

$$$$
OCNT-0478585


 17 19  0  0  0  0  0  0  0  0999 V2000
    2.7869   14.6346   21.9970 N   0  0  0  0  0  0  0  0  0  0  0  0
    2.4239   15.8113   21.2950 C   0  0  0  0  0  0  0  0  0  0  0  0
    1.2725   15.7850   20.5000 C   0  0  0  0  0  0  0  0  0  0  0  0
    0.2871   14.6462   20.4762 C   0  0  0  0  0  0  0  0  0  0  0  0
   -0.2154   14.3656   19.0559 C   0  0  0  0  0  0  0  0  0  0  0  0
   -0.5097   15.6164   18.2154 C   0  0  0  0  0  0  0  0  0  0  0  0
   -0.3195   16.9326   18.9651 C   0  0  0  0  0  0  0  0  0  0  0  0
    0.9681   16.9169   19.7461 C   0  0  0  0  0  0  0  0  0  0  0  0
    1.7497   18.0152   19.6951 N   0  0  0  0  0  0  0  0  0  0  0  0
    2.8923   18.0119   20.3954 C   0  0  0  0  0  0  0  0  0  0  0  0
    3.2990   16.9282   21.2076 C   0  0  0  0  0  0  0  0  0  0  0  0
    4.5433   17.0225   21.8815 C   0  0  0  0  0  0  0  0  0  0  0  0
    5.3490   18.1555   21.7660 C   0  0  0  0  0  0  0  0  0  0  0  0
    4.9296   19.2143   20.9755 C   0  0  0  0  0  0  0  0  0  0  0  0
    3.7107   19.1296   20.3011 C   0  0  0  0  0  0  0  0  0  0  0  0
    3.3791   14.8230   22.7988 H   0  0  0  0  0  0  0  0  0  0  0  0
    3.2562   13.9852   21.3683 H   0  0  0  0  0  0  0  0  0  0  0  0
  1  2  1  0  0  0
  2  3  2  0  0  0
  3  4  1  0  0  0
  4  5  1  0  0  0
  5  6  1  0  0  0
  6  7  1  0  0  0
  7  8  1  0  0  0
  8  9  2  0  0  0
  9 10  1  0  0  0
 10 11  1  0  0  0
 11 12  2  0  0  0
 12 13  1  0  0  0
 13 14  2  0  0  0
 14 15  1  0  0  0
 11  2  1  0  0  0
  8  3  1  0  0  0
 15 10  2  0  0  0
  1 16  1  0  0  0
  1 17  1  0  0  0
M  END
> <minimizedAffinity>
-10.84762

$$$$
OCNT-0483505


 16 18  0  0  0  0  0  0  0  0999 V2000
    2.5180   18.1448   19.9252 C   0  0  0  0  0  0  0  0  0  0  0  0
    2.1398   16.8580   20.3498 C   0  0  0  0  0  0  0  0  0  0  0  0
    1.0351   16.2557   19.6908 O   0  0  0  0  0  0  0  0  0  0  0  0
    0.5746   14.9927   20.0247 C   0  0  0  0  0  0  0  0  0  0  0  0
   -0.3771   14.4629   19.4636 O   0  0  0  0  0  0  0  0  0  0  0  0
    1.2900   14.2952   21.1059 C   0  0  0  0  0  0  0  0  0  0  0  0
    2.3316   14.8373   21.7429 C   0  0  0  0  0  0  0  0  0  0  0  0
    2.7951   16.1664   21.3719 C   0  0  0  0  0  0  0  0  0  0  0  0
    3.8849   16.7569   22.0243 C   0  0  0  0  0  0  0  0  0  0  0  0
    4.2987   18.0448   21.6320 C   0  0  0  0  0  0  0  0  0  0  0  0
    3.6134   18.6976   20.6055 C   0  0  0  0  0  0  0  0  0  0  0  0
    4.1829   19.9229   20.3949 O   0  0  0  0  0  0  0  0  0  0  0  0
    5.2123   20.0550   21.2674 C   0  0  0  0  0  0  0  0  0  0  0  0
    5.3276   18.9319   22.0496 C   0  0  0  0  0  0  0  0  0  0  0  0
    0.8945   19.7607   19.2597 C   0  0  0  0  0  0  0  0  0  0  0  0
    1.7757   18.7056   18.9013 O   0  0  0  0  0  0  0  0  0  0  0  0
 15 16  1  0  0  0
 16  1  1  0  0  0
  1  2  1  0  0  0
  2  3  1  0  0  0
  3  4  1  0  0  0
  4  5  2  0  0  0
  4  6  1  0  0  0
  6  7  2  0  0  0
  7  8  1  0  0  0
  8  9  1  0  0  0
  9 10  2  0  0  0
 10 11  1  0  0  0
 11 12  1  0  0  0
 12 13  1  0  0  0
 13 14  2  0  0  0
 11  1  2  0  0  0
  8  2  2  0  0  0
 14 10  1  0  0  0
M  END
> <minimizedAffinity>
-9.67529

$$$$
OCNT-0493792


 31 35  0  0  0  0  0  0  0  0999 V2000
    5.2053   18.4342   21.8579 C   0  0  0  0  0  0  0  0  0  0  0  0
    4.1020   17.7962   21.3088 C   0  0  0  0  0  0  0  0  0  0  0  0
    3.4952   16.4522   21.5939 C   0  0  0  0  0  0  0  0  0  0  0  0
    2.3640   16.4053   20.6633 N   0  0  0  0  0  0  0  0  0  0  0  0
    2.2832   17.5597   19.9131 C   0  0  0  0  0  0  0  0  0  0  0  0
    1.3224   17.7358   19.0005 C   0  0  0  0  0  0  0  0  0  0  0  0
    0.3426   16.6790   18.7956 C   0  0  0  0  0  0  0  0  0  0  0  0
    0.4224   15.5438   19.5250 C   0  0  0  0  0  0  0  0  0  0  0  0
   -0.5584   14.4367   19.3290 C   0  0  0  0  0  0  0  0  0  0  0  0
   -0.9945   14.3330   17.9564 O   0  0  0  0  0  0  0  0  0  0  0  0
   -0.9660   15.4193   17.1355 C   0  0  0  0  0  0  0  0  0  0  0  0
   -1.0392   15.2693   15.9186 O   0  0  0  0  0  0  0  0  0  0  0  0
   -0.8341   16.8066   17.8393 C   0  0  0  0  0  0  0  0  0  0  0  0
   -1.9819   17.0572   18.6629 O   0  0  0  0  0  0  0  0  0  0  0  0
    1.4909   15.3536   20.5533 C   0  0  0  0  0  0  0  0  0  0  0  0
    1.5549   14.3366   21.2342 O   0  0  0  0  0  0  0  0  0  0  0  0
    3.3751   18.4387   20.3138 C   0  0  0  0  0  0  0  0  0  0  0  0
    3.6277   19.6486   19.8059 N   0  0  0  0  0  0  0  0  0  0  0  0
    4.6977   20.2768   20.3183 C   0  0  0  0  0  0  0  0  0  0  0  0
    4.9996   21.5327   19.8097 C   0  0  0  0  0  0  0  0  0  0  0  0
    6.0922   22.2741   20.2634 C   0  0  0  0  0  0  0  0  0  0  0  0
    6.9012   21.7405   21.2508 C   0  0  0  0  0  0  0  0  0  0  0  0
    7.9824   22.4173   21.7296 O   0  0  0  0  0  0  0  0  0  0  0  0
    6.6323   20.4861   21.7875 C   0  0  0  0  0  0  0  0  0  0  0  0
    5.5292   19.7231   21.3423 C   0  0  0  0  0  0  0  0  0  0  0  0
   -1.9201   17.9766   18.9744 H   0  0  0  0  0  0  0  0  0  0  0  0
    8.0522   23.2685   21.2661 H   0  0  0  0  0  0  0  0  0  0  0  0
    7.0698   16.8174   22.3384 C   0  0  0  0  0  0  0  0  0  0  0  0
    6.0154   17.7428   22.9281 C   0  0  0  0  0  0  0  0  0  0  0  0
   -0.7284   17.9382   16.7874 C   0  0  0  0  0  0  0  0  0  0  0  0
   -1.9294   18.8843   16.7510 C   0  0  0  0  0  0  0  0  0  0  0  0
 28 29  1  0  0  0
 29  1  1  0  0  0
  1  2  2  0  0  0
  2  3  1  0  0  0
  3  4  1  0  0  0
  4  5  1  0  0  0
  5  6  2  0  0  0
  6  7  1  0  0  0
  7  8  2  0  0  0
  8  9  1  0  0  0
  9 10  1  0  0  0
 10 11  1  0  0  0
 11 12  2  0  0  0
 11 13  1  0  0  0
 13 14  1  0  0  0
 13 30  1  0  0  0
 30 31  1  0  0  0
  8 15  1  0  0  0
 15 16  2  0  0  0
  5 17  1  0  0  0
 17 18  2  0  0  0
 18 19  1  0  0  0
 19 20  2  0  0  0
 20 21  1  0  0  0
 21 22  2  0  0  0
 22 23  1  0  0  0
 22 24  1  0  0  0
 24 25  2  0  0  0
 25  1  1  0  0  0
 17  2  1  0  0  0
 25 19  1  0  0  0
 15  4  1  0  0  0
 13  7  1  0  0  0
 14 26  1  0  0  0
 23 27  1  0  0  0
M  END
> <minimizedAffinity>
-6.36358

$$$$
OCNT-0493842


 17 18  0  0  0  0  0  0  0  0999 V2000
    0.7844   15.2713   20.4110 N   0  0  0  0  0  0  0  0  0  0  0  0
    1.7219   16.2279   20.5235 C   0  0  0  0  0  0  0  0  0  0  0  0
    1.6863   17.3417   19.8386 N   0  0  0  0  0  0  0  0  0  0  0  0
    2.7756   18.1310   20.1614 C   0  0  0  0  0  0  0  0  0  0  0  0
    3.0746   19.3951   19.6175 C   0  0  0  0  0  0  0  0  0  0  0  0
    4.2175   20.0910   20.0389 C   0  0  0  0  0  0  0  0  0  0  0  0
    5.0680   19.5441   20.9969 C   0  0  0  0  0  0  0  0  0  0  0  0
    4.7841   18.2865   21.5486 C   0  0  0  0  0  0  0  0  0  0  0  0
    3.6372   17.5982   21.1191 C   0  0  0  0  0  0  0  0  0  0  0  0
    3.0380   16.0614   21.6088 S   0  0  0  0  0  0  0  0  0  0  0  0
    0.6522   14.6549   21.2033 H   0  0  0  0  0  0  0  0  0  0  0  0
   -0.0829   15.5744   19.9810 H   0  0  0  0  0  0  0  0  0  0  0  0
    6.2070   20.1188   21.4891 O   0  0  0  0  0  0  0  0  0  0  0  0
    6.2248   21.5268   21.6542 C   0  0  0  0  0  0  0  0  0  0  0  0
    7.0848   21.8352   22.6498 F   0  0  0  0  0  0  0  0  0  0  0  0
    5.0041   21.9919   21.9947 F   0  0  0  0  0  0  0  0  0  0  0  0
    6.6458   22.1434   20.5295 F   0  0  0  0  0  0  0  0  0  0  0  0
  1  2  1  0  0  0
  2  3  2  0  0  0
  3  4  1  0  0  0
  4  5  2  0  0  0
  5  6  1  0  0  0
  6  7  2  0  0  0
  7 13  1  0  0  0
 13 14  1  0  0  0
 14 15  1  0  0  0
 14 16  1  0  0  0
 14 17  1  0  0  0
  7  8  1  0  0  0
  8  9  2  0  0  0
  9 10  1  0  0  0
 10  2  1  0  0  0
  9  4  1  0  0  0
  1 11  1  0  0  0
  1 12  1  0  0  0
M  END
> <minimizedAffinity>
-8.51468

$$$$
OCNT-0493904


 18 19  0  0  0  0  0  0  0  0999 V2000
    0.6481   16.7206   19.2343 C   0  0  0  0  0  0  0  0  0  0  0  0
   -0.1813   15.6228   18.9901 C   0  0  0  0  0  0  0  0  0  0  0  0
   -0.0371   14.4480   19.7377 C   0  0  0  0  0  0  0  0  0  0  0  0
    0.9274   14.3651   20.7410 C   0  0  0  0  0  0  0  0  0  0  0  0
    1.7579   15.4551   20.9961 C   0  0  0  0  0  0  0  0  0  0  0  0
    1.6291   16.6198   20.2341 C   0  0  0  0  0  0  0  0  0  0  0  0
    0.6019   17.9122   18.5556 O   0  0  0  0  0  0  0  0  0  0  0  0
   -1.2134   18.6391   17.1913 C   0  0  0  0  0  0  0  0  0  0  0  0
    0.1083   17.8911   17.2187 C   0  0  0  0  0  0  0  0  0  0  0  0
    2.4091   17.7191   20.4939 O   0  0  0  0  0  0  0  0  0  0  0  0
    3.3611   17.4757   21.5343 C   0  0  0  0  0  0  0  0  0  0  0  0
    4.7720   17.7645   20.9985 C   0  0  0  0  0  0  0  0  0  0  0  0
    5.8115   17.9976   22.1281 C   0  0  0  0  0  0  0  0  0  0  0  0
    6.3859   19.3592   22.1568 N   0  0  0  0  0  0  0  0  0  0  0  0
    5.2917   20.3222   21.9838 C   0  0  0  0  0  0  0  0  0  0  0  0
    4.5561   20.1376   20.6457 C   0  0  0  0  0  0  0  0  0  0  0  0
    4.7590   18.8478   20.0507 O   0  0  0  0  0  0  0  0  0  0  0  0
    6.9920   19.4392   21.3365 H   0  0  0  0  0  0  0  0  0  0  0  0
  8  9  1  0  0  0
  9  7  1  0  0  0
  7  1  1  0  0  0
  1  2  2  0  0  0
  2  3  1  0  0  0
  3  4  2  0  0  0
  4  5  1  0  0  0
  5  6  2  0  0  0
  6 10  1  0  0  0
 10 11  1  0  0  0
 11 12  1  0  0  0
 12 13  1  0  0  0
 13 14  1  0  0  0
 14 15  1  0  0  0
 15 16  1  0  0  0
 16 17  1  0  0  0
  6  1  1  0  0  0
 17 12  1  0  0  0
 14 18  1  0  0  0
M  END
> <minimizedAffinity>
-8.08754

$$$$
OCNT-0493927


 22 24  0  0  0  0  0  0  0  0999 V2000
    4.8684   18.0808   22.9552 O   0  0  0  0  0  0  0  0  0  0  0  0
    3.9671   17.5079   22.3563 C   0  0  0  0  0  0  0  0  0  0  0  0
    3.6079   17.8818   21.0932 N   0  0  0  0  0  0  0  0  0  0  0  0
    2.5352   17.3490   20.3934 C   0  0  0  0  0  0  0  0  0  0  0  0
    2.0986   17.9531   19.2143 C   0  0  0  0  0  0  0  0  0  0  0  0
    1.0140   17.4109   18.5243 C   0  0  0  0  0  0  0  0  0  0  0  0
    0.3882   16.2652   19.0111 C   0  0  0  0  0  0  0  0  0  0  0  0
   -0.9414   15.5894   18.1549 Cl  0  0  0  0  0  0  0  0  0  0  0  0
    0.8417   15.6529   20.1808 C   0  0  0  0  0  0  0  0  0  0  0  0
    1.9248   16.2005   20.8907 C   0  0  0  0  0  0  0  0  0  0  0  0
    2.5520   15.5515   22.1151 C   0  0  0  0  0  0  0  0  0  0  0  0
    3.2283   16.5345   22.9384 O   0  0  0  0  0  0  0  0  0  0  0  0
    4.1079   18.6864   20.7357 H   0  0  0  0  0  0  0  0  0  0  0  0
    3.5774   14.4658   21.6777 C   0  0  0  0  0  0  0  0  0  0  0  0
    4.4286   14.9236   20.7246 F   0  0  0  0  0  0  0  0  0  0  0  0
    2.9697   13.3661   21.1678 F   0  0  0  0  0  0  0  0  0  0  0  0
    4.3434   14.0414   22.7143 F   0  0  0  0  0  0  0  0  0  0  0  0
    1.5128   14.9453   22.9876 C   0  0  0  0  0  0  0  0  0  0  0  0
    0.6754   14.4571   23.6976 C   0  0  0  0  0  0  0  0  0  0  0  0
   -0.3181   13.8777   24.5514 C   0  0  0  0  0  0  0  0  0  0  0  0
   -1.4219   13.0659   23.9259 C   0  0  0  0  0  0  0  0  0  0  0  0
   -1.7219   14.4212   24.4970 C   0  0  0  0  0  0  0  0  0  0  0  0
  1  2  2  0  0  0
  2  3  1  0  0  0
  3  4  1  0  0  0
  4  5  1  0  0  0
  5  6  2  0  0  0
  6  7  1  0  0  0
  7  8  1  0  0  0
  7  9  2  0  0  0
  9 10  1  0  0  0
 10 11  1  0  0  0
 11 18  1  0  0  0
 18 19  3  0  0  0
 19 20  1  0  0  0
 20 21  1  0  0  0
 21 22  1  0  0  0
 11 14  1  0  0  0
 14 15  1  0  0  0
 14 16  1  0  0  0
 14 17  1  0  0  0
 11 12  1  0  0  0
 12  2  1  0  0  0
 10  4  2  0  0  0
 22 20  1  0  0  0
  3 13  1  0  0  0
M  END
> <minimizedAffinity>
-3.78983

$$$$
OCNT-0493951


 40 42  0  0  0  0  0  0  0  0999 V2000
    1.6744   20.2388   19.3334 O   0  0  0  0  0  0  0  0  0  0  0  0
    2.2486   19.2249   19.7202 C   0  0  0  0  0  0  0  0  0  0  0  0
    3.5813   19.3004   20.3577 C   0  0  0  0  0  0  0  0  0  0  0  0
    4.4131   20.4258   20.2176 C   0  0  0  0  0  0  0  0  0  0  0  0
    4.0539   21.4635   19.4056 O   0  0  0  0  0  0  0  0  0  0  0  0
    5.6416   20.4961   20.8783 C   0  0  0  0  0  0  0  0  0  0  0  0
    6.0530   19.4391   21.6836 C   0  0  0  0  0  0  0  0  0  0  0  0
    5.2432   18.3153   21.8134 C   0  0  0  0  0  0  0  0  0  0  0  0
    5.7327   17.3193   22.6159 O   0  0  0  0  0  0  0  0  0  0  0  0
    4.0088   18.2337   21.1459 C   0  0  0  0  0  0  0  0  0  0  0  0
    3.1810   17.0184   21.2593 C   0  0  0  0  0  0  0  0  0  0  0  0
    3.5576   16.1338   22.0287 O   0  0  0  0  0  0  0  0  0  0  0  0
    1.9719   16.8456   20.4120 C   0  0  0  0  0  0  0  0  0  0  0  0
    1.5582   17.9129   19.5976 C   0  0  0  0  0  0  0  0  0  0  0  0
    0.4570   17.7744   18.7128 C   0  0  0  0  0  0  0  0  0  0  0  0
   -0.1809   16.5330   18.6677 C   0  0  0  0  0  0  0  0  0  0  0  0
    0.2043   15.4836   19.5066 C   0  0  0  0  0  0  0  0  0  0  0  0
    1.2859   15.6053   20.3846 C   0  0  0  0  0  0  0  0  0  0  0  0
    4.6906   22.1924   19.4785 H   0  0  0  0  0  0  0  0  0  0  0  0
    5.0569   16.6056   22.6616 H   0  0  0  0  0  0  0  0  0  0  0  0
    0.1238   18.7976   17.8083 N   0  0  0  0  0  0  0  0  0  0  0  0
   -0.2739   19.5963   18.3304 H   0  0  0  0  0  0  0  0  0  0  0  0
   -0.6632   18.5141   16.6011 C   0  0  0  0  0  0  0  0  0  0  0  0
   -2.1561   18.8497   16.8116 C   0  0  0  0  0  0  0  0  0  0  0  0
   -2.8424   19.3977   15.6326 N   0  0  0  0  0  0  0  0  0  0  0  0
   -2.3368   20.2559   15.3802 H   0  0  0  0  0  0  0  0  0  0  0  0
   -4.2543   19.7124   15.8469 C   0  0  0  0  0  0  0  0  0  0  0  0
   -5.0198   20.2292   14.6206 C   0  0  0  0  0  0  0  0  0  0  0  0
   -5.1328   21.6505   14.6711 O   0  0  0  0  0  0  0  0  0  0  0  0
   -4.2317   22.0148   14.6516 H   0  0  0  0  0  0  0  0  0  0  0  0
    1.6048   14.5660   21.2694 N   0  0  0  0  0  0  0  0  0  0  0  0
    2.3416   13.9587   20.8873 H   0  0  0  0  0  0  0  0  0  0  0  0
    0.5644   13.8074   21.9654 C   0  0  0  0  0  0  0  0  0  0  0  0
    0.5016   14.1558   23.4678 C   0  0  0  0  0  0  0  0  0  0  0  0
   -0.8432   14.6114   23.8589 N   0  0  0  0  0  0  0  0  0  0  0  0
   -0.7492   15.4993   24.3574 H   0  0  0  0  0  0  0  0  0  0  0  0
   -1.5059   13.6503   24.7629 C   0  0  0  0  0  0  0  0  0  0  0  0
   -1.6586   12.2650   24.1208 C   0  0  0  0  0  0  0  0  0  0  0  0
   -3.0214   11.8505   24.2006 O   0  0  0  0  0  0  0  0  0  0  0  0
   -3.5354   12.6780   24.1024 H   0  0  0  0  0  0  0  0  0  0  0  0
  1  2  2  0  0  0
  2  3  1  0  0  0
  3  4  2  0  0  0
  4  5  1  0  0  0
  4  6  1  0  0  0
  6  7  2  0  0  0
  7  8  1  0  0  0
  8  9  1  0  0  0
  8 10  2  0  0  0
 10 11  1  0  0  0
 11 12  2  0  0  0
 11 13  1  0  0  0
 13 14  1  0  0  0
 14 15  2  0  0  0
 15 21  1  0  0  0
 21 23  1  0  0  0
 23 24  1  0  0  0
 24 25  1  0  0  0
 25 27  1  0  0  0
 27 28  1  0  0  0
 28 29  1  0  0  0
 15 16  1  0  0  0
 16 17  2  0  0  0
 17 18  1  0  0  0
 18 31  1  0  0  0
 31 33  1  0  0  0
 33 34  1  0  0  0
 34 35  1  0  0  0
 35 37  1  0  0  0
 37 38  1  0  0  0
 38 39  1  0  0  0
 14  2  1  0  0  0
 10  3  1  0  0  0
 18 13  2  0  0  0
  5 19  1  0  0  0
  9 20  1  0  0  0
 21 22  1  0  0  0
 25 26  1  0  0  0
 29 30  1  0  0  0
 31 32  1  0  0  0
 35 36  1  0  0  0
 39 40  1  0  0  0
M  END
> <minimizedAffinity>
-9.35905

$$$$
OCNT-0494012


 20 21  0  0  0  0  0  0  0  0999 V2000
    1.0301   17.8796   19.4867 C   0  0  0  0  0  0  0  0  0  0  0  0
    0.4110   18.9000   19.7647 O   0  0  0  0  0  0  0  0  0  0  0  0
    2.3967   17.7095   19.6376 N   0  0  0  0  0  0  0  0  0  0  0  0
    2.7846   16.8122   19.3897 H   0  0  0  0  0  0  0  0  0  0  0  0
    0.8615   14.8984   20.7865 C   0  0  0  0  0  0  0  0  0  0  0  0
    0.2913   15.4681   19.5485 C   0  0  0  0  0  0  0  0  0  0  0  0
    0.3331   16.7167   18.9556 C   0  0  0  0  0  0  0  0  0  0  0  0
   -0.4418   16.5327   17.7872 C   0  0  0  0  0  0  0  0  0  0  0  0
   -0.9116   15.2898   17.6690 N   0  0  0  0  0  0  0  0  0  0  0  0
   -0.4468   14.6190   18.7846 O   0  0  0  0  0  0  0  0  0  0  0  0
    3.3336   18.6510   20.1181 C   0  0  0  0  0  0  0  0  0  0  0  0
    4.0507   18.3034   21.2705 C   0  0  0  0  0  0  0  0  0  0  0  0
    4.9993   19.1755   21.8160 C   0  0  0  0  0  0  0  0  0  0  0  0
    5.2468   20.4195   21.2222 C   0  0  0  0  0  0  0  0  0  0  0  0
    4.5357   20.7609   20.0646 C   0  0  0  0  0  0  0  0  0  0  0  0
    3.5865   19.8862   19.5202 C   0  0  0  0  0  0  0  0  0  0  0  0
    6.2852   21.3537   21.7940 C   0  0  0  0  0  0  0  0  0  0  0  0
    6.9511   22.0646   20.8422 F   0  0  0  0  0  0  0  0  0  0  0  0
    5.7573   22.2774   22.6454 F   0  0  0  0  0  0  0  0  0  0  0  0
    7.2391   20.6926   22.5053 F   0  0  0  0  0  0  0  0  0  0  0  0
  5  6  1  0  0  0
  6  7  2  0  0  0
  7  1  1  0  0  0
  1  2  2  0  0  0
  1  3  1  0  0  0
  3 11  1  0  0  0
 11 12  1  0  0  0
 12 13  2  0  0  0
 13 14  1  0  0  0
 14 17  1  0  0  0
 17 18  1  0  0  0
 17 19  1  0  0  0
 17 20  1  0  0  0
 14 15  2  0  0  0
 15 16  1  0  0  0
  7  8  1  0  0  0
  8  9  2  0  0  0
  9 10  1  0  0  0
 10  6  1  0  0  0
 16 11  2  0  0  0
  3  4  1  0  0  0
M  END
> <minimizedAffinity>
-10.52824

$$$$
OCNT-0494105


 28 29  0  0  0  0  0  0  0  0999 V2000
    0.7313   16.8016   19.4898 C   0  0  0  0  0  0  0  0  0  0  0  0
    0.0168   15.5900   19.4285 C   0  0  0  0  0  0  0  0  0  0  0  0
    0.3908   14.5043   20.2197 C   0  0  0  0  0  0  0  0  0  0  0  0
    1.4730   14.6199   21.0833 C   0  0  0  0  0  0  0  0  0  0  0  0
    2.1884   15.8176   21.1505 C   0  0  0  0  0  0  0  0  0  0  0  0
    1.8435   16.9250   20.3567 C   0  0  0  0  0  0  0  0  0  0  0  0
    0.3408   19.1225   19.0380 O   0  0  0  0  0  0  0  0  0  0  0  0
    0.3084   17.9627   18.6525 C   0  0  0  0  0  0  0  0  0  0  0  0
   -0.1063   17.5545   17.4272 O   0  0  0  0  0  0  0  0  0  0  0  0
   -0.6969   18.5699   16.6010 C   0  0  0  0  0  0  0  0  0  0  0  0
   -2.1965   18.6957   16.8541 C   0  0  0  0  0  0  0  0  0  0  0  0
   -2.8160   19.3088   15.7222 O   0  0  0  0  0  0  0  0  0  0  0  0
   -4.2045   19.5729   15.9663 C   0  0  0  0  0  0  0  0  0  0  0  0
   -4.8312   20.0514   14.6612 C   0  0  0  0  0  0  0  0  0  0  0  0
   -5.1551   21.4374   14.7635 O   0  0  0  0  0  0  0  0  0  0  0  0
   -5.6407   21.5233   15.6067 H   0  0  0  0  0  0  0  0  0  0  0  0
    2.6012   18.1172   20.4260 N   0  0  0  0  0  0  0  0  0  0  0  0
    2.3513   18.7869   19.6895 H   0  0  0  0  0  0  0  0  0  0  0  0
    3.8708   18.3850   20.9744 C   0  0  0  0  0  0  0  0  0  0  0  0
    4.5892   17.4677   21.7470 C   0  0  0  0  0  0  0  0  0  0  0  0
    5.8273   17.8050   22.3001 C   0  0  0  0  0  0  0  0  0  0  0  0
    6.3635   19.0741   22.0934 C   0  0  0  0  0  0  0  0  0  0  0  0
    5.6685   20.0162   21.3245 C   0  0  0  0  0  0  0  0  0  0  0  0
    4.4215   19.6613   20.7810 C   0  0  0  0  0  0  0  0  0  0  0  0
    6.2290   21.4003   21.1203 C   0  0  0  0  0  0  0  0  0  0  0  0
    7.3028   21.4307   20.2826 F   0  0  0  0  0  0  0  0  0  0  0  0
    5.3144   22.2565   20.5865 F   0  0  0  0  0  0  0  0  0  0  0  0
    6.6491   21.9801   22.2799 F   0  0  0  0  0  0  0  0  0  0  0  0
  7  8  2  0  0  0
  8  9  1  0  0  0
  9 10  1  0  0  0
 10 11  1  0  0  0
 11 12  1  0  0  0
 12 13  1  0  0  0
 13 14  1  0  0  0
 14 15  1  0  0  0
  8  1  1  0  0  0
  1  2  2  0  0  0
  2  3  1  0  0  0
  3  4  2  0  0  0
  4  5  1  0  0  0
  5  6  2  0  0  0
  6 17  1  0  0  0
 17 19  1  0  0  0
 19 20  1  0  0  0
 20 21  2  0  0  0
 21 22  1  0  0  0
 22 23  2  0  0  0
 23 25  1  0  0  0
 25 26  1  0  0  0
 25 27  1  0  0  0
 25 28  1  0  0  0
 23 24  1  0  0  0
  6  1  1  0  0  0
 24 19  2  0  0  0
 15 16  1  0  0  0
 17 18  1  0  0  0
M  END
> <minimizedAffinity>
-10.15700

$$$$
OCNT-0494164


 43 47  0  0  0  0  0  0  0  0999 V2000
    3.7479   20.3276   19.2241 C   0  0  0  0  0  0  0  0  0  0  0  0
    2.8420   19.7860   18.3078 C   0  0  0  0  0  0  0  0  0  0  0  0
    1.4939   20.1564   18.3684 C   0  0  0  0  0  0  0  0  0  0  0  0
    1.0570   21.0754   19.3287 C   0  0  0  0  0  0  0  0  0  0  0  0
    1.9664   21.6089   20.2442 C   0  0  0  0  0  0  0  0  0  0  0  0
    3.3222   21.2393   20.2057 C   0  0  0  0  0  0  0  0  0  0  0  0
    0.4908   19.5694   17.4526 C   0  0  0  0  0  0  0  0  0  0  0  0
    0.0869   20.1852   16.4809 O   0  0  0  0  0  0  0  0  0  0  0  0
    0.0320   18.3048   17.8424 N   0  0  0  0  0  0  0  0  0  0  0  0
    0.2367   17.9343   18.7637 H   0  0  0  0  0  0  0  0  0  0  0  0
   -1.1798   17.4522   17.0873 S   0  0  0  0  0  0  0  0  0  0  0  0
   -2.4484   17.9517   17.5775 O   0  0  0  0  0  0  0  0  0  0  0  0
   -0.8705   17.5152   15.6714 O   0  0  0  0  0  0  0  0  0  0  0  0
   -0.9481   15.7629   17.6114 C   0  0  0  0  0  0  0  0  0  0  0  0
   -1.3403   14.7522   16.7207 C   0  0  0  0  0  0  0  0  0  0  0  0
   -1.1843   13.4096   17.0646 C   0  0  0  0  0  0  0  0  0  0  0  0
   -0.6276   13.0702   18.2932 C   0  0  0  0  0  0  0  0  0  0  0  0
   -0.2226   14.0696   19.1804 C   0  0  0  0  0  0  0  0  0  0  0  0
   -0.3777   15.4328   18.8591 C   0  0  0  0  0  0  0  0  0  0  0  0
    0.1109   16.4540   19.8483 C   0  0  0  0  0  0  0  0  0  0  0  0
    5.3186   18.6926   18.7100 C   0  0  0  0  0  0  0  0  0  0  0  0
    5.0850   20.0367   19.1301 O   0  0  0  0  0  0  0  0  0  0  0  0
    4.2823   21.8324   21.2115 C   0  0  0  0  0  0  0  0  0  0  0  0
    5.2833   20.7785   21.5921 C   0  0  0  0  0  0  0  0  0  0  0  0
    6.6540   20.8929   21.7442 C   0  0  0  0  0  0  0  0  0  0  0  0
    7.1600   19.6669   22.0803 N   0  0  0  0  0  0  0  0  0  0  0  0
    8.5650   19.3912   22.2978 C   0  0  0  0  0  0  0  0  0  0  0  0
    6.1566   18.7273   22.1268 C   0  0  0  0  0  0  0  0  0  0  0  0
    6.1868   17.3529   22.4043 C   0  0  0  0  0  0  0  0  0  0  0  0
    4.9819   16.6447   22.3353 C   0  0  0  0  0  0  0  0  0  0  0  0
    3.7798   17.2722   22.0044 C   0  0  0  0  0  0  0  0  0  0  0  0
    3.7729   18.6484   21.7538 C   0  0  0  0  0  0  0  0  0  0  0  0
    4.9720   19.3936   21.8124 C   0  0  0  0  0  0  0  0  0  0  0  0
    2.6265   16.4693   21.9366 N   0  0  0  0  0  0  0  0  0  0  0  0
    2.5312   15.1130   22.0589 C   0  0  0  0  0  0  0  0  0  0  0  0
    3.4288   14.3110   22.2655 O   0  0  0  0  0  0  0  0  0  0  0  0
    1.7349   16.9252   21.8058 H   0  0  0  0  0  0  0  0  0  0  0  0
    1.2199   14.7676   21.9329 O   0  0  0  0  0  0  0  0  0  0  0  0
    0.6782   14.0514   23.0446 C   0  0  0  0  0  0  0  0  0  0  0  0
   -0.2750   12.9458   22.6093 C   0  0  0  0  0  0  0  0  0  0  0  0
   -1.0960   12.6727   23.8586 C   0  0  0  0  0  0  0  0  0  0  0  0
   -1.1927   14.0179   24.5806 C   0  0  0  0  0  0  0  0  0  0  0  0
   -0.2387   14.9624   23.8558 C   0  0  0  0  0  0  0  0  0  0  0  0
 21 22  1  0  0  0
 22  1  1  0  0  0
  1  2  1  0  0  0
  2  3  2  0  0  0
  3  7  1  0  0  0
  7  8  2  0  0  0
  7  9  1  0  0  0
  9 11  1  0  0  0
 11 12  2  0  0  0
 11 13  2  0  0  0
 11 14  1  0  0  0
 14 15  2  0  0  0
 15 16  1  0  0  0
 16 17  2  0  0  0
 17 18  1  0  0  0
 18 19  2  0  0  0
 19 20  1  0  0  0
  3  4  1  0  0  0
  4  5  2  0  0  0
  5  6  1  0  0  0
  6 23  1  0  0  0
 23 24  1  0  0  0
 24 25  2  0  0  0
 25 26  1  0  0  0
 26 27  1  0  0  0
 26 28  1  0  0  0
 28 29  2  0  0  0
 29 30  1  0  0  0
 30 31  2  0  0  0
 31 34  1  0  0  0
 34 35  1  0  0  0
 35 36  2  0  0  0
 35 38  1  0  0  0
 38 39  1  0  0  0
 39 40  1  0  0  0
 40 41  1  0  0  0
 41 42  1  0  0  0
 42 43  1  0  0  0
 31 32  1  0  0  0
 32 33  2  0  0  0
  6  1  2  0  0  0
 33 24  1  0  0  0
 19 14  1  0  0  0
 33 28  1  0  0  0
 43 39  1  0  0  0
  9 10  1  0  0  0
 34 37  1  0  0  0
M  END
> <minimizedAffinity>
1.50185

$$$$
OCNT-0495216


 27 28  0  0  0  0  0  0  0  0999 V2000
    3.9607   18.3872   20.5381 C   0  0  0  0  0  0  0  0  0  0  0  0
    4.5771   17.8020   19.3647 O   0  0  0  0  0  0  0  0  0  0  0  0
    4.5609   16.8340   19.4990 H   0  0  0  0  0  0  0  0  0  0  0  0
    4.8568   19.5984   20.8336 C   0  0  0  0  0  0  0  0  0  0  0  0
    5.9746   19.4471   21.6813 C   0  0  0  0  0  0  0  0  0  0  0  0
    6.8264   20.5176   21.9666 C   0  0  0  0  0  0  0  0  0  0  0  0
    6.5940   21.7627   21.3947 C   0  0  0  0  0  0  0  0  0  0  0  0
    5.5190   21.9315   20.5290 C   0  0  0  0  0  0  0  0  0  0  0  0
    4.6666   20.8587   20.2435 C   0  0  0  0  0  0  0  0  0  0  0  0
    2.4694   18.6754   20.1483 C   0  0  0  0  0  0  0  0  0  0  0  0
    2.3340   19.7935   19.0844 C   0  0  0  0  0  0  0  0  0  0  0  0
    0.8695   20.1315   18.8017 C   0  0  0  0  0  0  0  0  0  0  0  0
    0.0672   18.8995   18.3991 C   0  0  0  0  0  0  0  0  0  0  0  0
    0.2085   17.7781   19.4225 C   0  0  0  0  0  0  0  0  0  0  0  0
    1.6769   17.4376   19.6759 C   0  0  0  0  0  0  0  0  0  0  0  0
    4.0161   17.3303   21.6767 C   0  0  0  0  0  0  0  0  0  0  0  0
    3.8154   17.6222   22.8542 O   0  0  0  0  0  0  0  0  0  0  0  0
    4.2998   16.0839   21.2174 O   0  0  0  0  0  0  0  0  0  0  0  0
    3.9810   15.0069   22.1058 C   0  0  0  0  0  0  0  0  0  0  0  0
    1.4115   14.3443   21.8330 C   0  0  0  0  0  0  0  0  0  0  0  0
    2.5658   14.6539   21.9598 C   0  0  0  0  0  0  0  0  0  0  0  0
    0.0087   13.9355   21.6660 C   0  0  0  0  0  0  0  0  0  0  0  0
   -0.7010   13.6226   22.9107 N   0  0  0  0  0  0  0  0  0  0  0  0
   -2.0102   11.8044   24.0158 C   0  0  0  0  0  0  0  0  0  0  0  0
   -0.7330   12.2061   23.2854 C   0  0  0  0  0  0  0  0  0  0  0  0
   -0.3838   14.5161   24.0297 C   0  0  0  0  0  0  0  0  0  0  0  0
   -1.5315   14.9312   24.9432 C   0  0  0  0  0  0  0  0  0  0  0  0
 24 25  1  0  0  0
 25 23  1  0  0  0
 23 26  1  0  0  0
 26 27  1  0  0  0
 23 22  1  0  0  0
 22 20  1  0  0  0
 20 21  3  0  0  0
 21 19  1  0  0  0
 19 18  1  0  0  0
 18 16  1  0  0  0
 16 17  2  0  0  0
 16  1  1  0  0  0
  1  2  1  0  0  0
  1  4  1  0  0  0
  4  5  2  0  0  0
  5  6  1  0  0  0
  6  7  2  0  0  0
  7  8  1  0  0  0
  8  9  2  0  0  0
  1 10  1  0  0  0
 10 11  1  0  0  0
 11 12  1  0  0  0
 12 13  1  0  0  0
 13 14  1  0  0  0
 14 15  1  0  0  0
  9  4  1  0  0  0
 15 10  1  0  0  0
  2  3  1  0  0  0
M  END
> <minimizedAffinity>
-7.01682

$$$$
OCNT-0495277


 22 25  0  0  0  0  0  0  0  0999 V2000
    4.1026   19.1279   20.4443 C   0  0  0  0  0  0  0  0  0  0  0  0
    4.0372   18.5570   21.8809 C   0  0  0  0  0  0  0  0  0  0  0  0
    3.8486   17.0312   21.8941 C   0  0  0  0  0  0  0  0  0  0  0  0
    2.7316   16.6716   20.9769 C   0  0  0  0  0  0  0  0  0  0  0  0
    2.2531   17.4603   19.9470 C   0  0  0  0  0  0  0  0  0  0  0  0
    2.8403   18.7609   19.6483 C   0  0  0  0  0  0  0  0  0  0  0  0
    2.3860   19.5010   18.7788 O   0  0  0  0  0  0  0  0  0  0  0  0
    1.1657   16.7696   19.3454 C   0  0  0  0  0  0  0  0  0  0  0  0
    0.2839   17.0635   18.2844 C   0  0  0  0  0  0  0  0  0  0  0  0
   -0.7117   16.1460   17.9354 C   0  0  0  0  0  0  0  0  0  0  0  0
   -0.8393   14.9461   18.6268 C   0  0  0  0  0  0  0  0  0  0  0  0
    0.0222   14.6281   19.6809 C   0  0  0  0  0  0  0  0  0  0  0  0
    1.0226   15.5533   20.0246 C   0  0  0  0  0  0  0  0  0  0  0  0
    2.0041   15.5091   20.9993 N   0  0  0  0  0  0  0  0  0  0  0  0
    2.2106   14.3976   21.9032 C   0  0  0  0  0  0  0  0  0  0  0  0
    4.2675   20.6535   20.4316 C   0  0  0  0  0  0  0  0  0  0  0  0
    4.8797   21.9900   23.1610 C   0  0  0  0  0  0  0  0  0  0  0  0
    5.8745   21.6846   22.1023 C   0  0  0  0  0  0  0  0  0  0  0  0
    7.1677   21.9315   22.1791 N   0  0  0  0  0  0  0  0  0  0  0  0
    7.7021   21.5283   20.9856 C   0  0  0  0  0  0  0  0  0  0  0  0
    6.7267   21.0139   20.1682 C   0  0  0  0  0  0  0  0  0  0  0  0
    5.5692   21.0980   20.8955 N   0  0  0  0  0  0  0  0  0  0  0  0
 17 18  1  0  0  0
 18 19  2  0  0  0
 19 20  1  0  0  0
 20 21  2  0  0  0
 21 22  1  0  0  0
 22 16  1  0  0  0
 16  1  1  0  0  0
  1  2  1  0  0  0
  2  3  1  0  0  0
  3  4  1  0  0  0
  4  5  2  0  0  0
  5  6  1  0  0  0
  6  7  2  0  0  0
  5  8  1  0  0  0
  8  9  2  0  0  0
  9 10  1  0  0  0
 10 11  2  0  0  0
 11 12  1  0  0  0
 12 13  2  0  0  0
 13 14  1  0  0  0
 14 15  1  0  0  0
 22 18  1  0  0  0
  6  1  1  0  0  0
 13  8  1  0  0  0
 14  4  1  0  0  0
M  END
> <minimizedAffinity>
-9.36427

$$$$
OCNT-0495303


 23 24  0  0  0  0  0  0  0  0999 V2000
    2.8277   17.4512   21.1894 N   0  0  0  0  0  0  0  0  0  0  0  0
    3.0646   18.2509   20.6069 H   0  0  0  0  0  0  0  0  0  0  0  0
    1.8605   16.6374   20.5782 C   0  0  0  0  0  0  0  0  0  0  0  0
    1.6792   15.3003   20.9334 C   0  0  0  0  0  0  0  0  0  0  0  0
    0.6941   14.5608   20.3066 C   0  0  0  0  0  0  0  0  0  0  0  0
   -0.1387   15.0538   19.3729 N   0  0  0  0  0  0  0  0  0  0  0  0
   -0.0252   16.3501   19.0583 C   0  0  0  0  0  0  0  0  0  0  0  0
   -0.9151   16.8613   18.1258 C   0  0  0  0  0  0  0  0  0  0  0  0
   -0.8885   18.2034   17.7595 C   0  0  0  0  0  0  0  0  0  0  0  0
   -2.0127   18.7995   16.6016 Cl  0  0  0  0  0  0  0  0  0  0  0  0
    0.0344   19.0660   18.3302 C   0  0  0  0  0  0  0  0  0  0  0  0
    0.9425   18.5702   19.2656 C   0  0  0  0  0  0  0  0  0  0  0  0
    0.9456   17.2029   19.6404 C   0  0  0  0  0  0  0  0  0  0  0  0
    3.9827   16.9318   21.9225 C   0  0  0  0  0  0  0  0  0  0  0  0
    5.1302   16.6679   20.9433 C   0  0  0  0  0  0  0  0  0  0  0  0
    4.4232   17.9785   22.9662 C   0  0  0  0  0  0  0  0  0  0  0  0
    5.6354   18.8289   22.5527 C   0  0  0  0  0  0  0  0  0  0  0  0
    5.2811   20.2427   22.0651 C   0  0  0  0  0  0  0  0  0  0  0  0
    5.4946   20.5223   20.6360 N   0  0  0  0  0  0  0  0  0  0  0  0
    3.3083   21.3857   19.7828 C   0  0  0  0  0  0  0  0  0  0  0  0
    4.3290   20.2523   19.7936 C   0  0  0  0  0  0  0  0  0  0  0  0
    6.2203   21.7645   20.3633 C   0  0  0  0  0  0  0  0  0  0  0  0
    7.7128   21.7721   20.6662 C   0  0  0  0  0  0  0  0  0  0  0  0
 20 21  1  0  0  0
 21 19  1  0  0  0
 19 22  1  0  0  0
 22 23  1  0  0  0
 19 18  1  0  0  0
 18 17  1  0  0  0
 17 16  1  0  0  0
 16 14  1  0  0  0
 14 15  1  0  0  0
 14  1  1  0  0  0
  1  3  1  0  0  0
  3  4  2  0  0  0
  4  5  1  0  0  0
  5  6  2  0  0  0
  6  7  1  0  0  0
  7  8  2  0  0  0
  8  9  1  0  0  0
  9 10  1  0  0  0
  9 11  2  0  0  0
 11 12  1  0  0  0
 12 13  2  0  0  0
 13  3  1  0  0  0
 13  7  1  0  0  0
  1  2  1  0  0  0
M  END
> <minimizedAffinity>
-8.80221

$$$$
OCNT-0495682


 14 15  0  0  0  0  0  0  0  0999 V2000
    0.6084   20.1116   17.9938 O   0  0  0  0  0  0  0  0  0  0  0  0
    0.4969   18.8223   18.4698 C   0  0  0  0  0  0  0  0  0  0  0  0
   -0.5828   18.0256   18.0912 C   0  0  0  0  0  0  0  0  0  0  0  0
   -1.8080   18.6085   17.0274 Cl  0  0  0  0  0  0  0  0  0  0  0  0
   -0.6828   16.7286   18.5781 C   0  0  0  0  0  0  0  0  0  0  0  0
    0.3004   16.2404   19.4405 C   0  0  0  0  0  0  0  0  0  0  0  0
    0.1122   14.6148   20.0088 Cl  0  0  0  0  0  0  0  0  0  0  0  0
    1.4019   17.0438   19.8307 C   0  0  0  0  0  0  0  0  0  0  0  0
    2.4382   16.6298   20.6969 C   0  0  0  0  0  0  0  0  0  0  0  0
    3.4790   17.4935   21.0209 C   0  0  0  0  0  0  0  0  0  0  0  0
    3.4646   18.7585   20.4716 C   0  0  0  0  0  0  0  0  0  0  0  0
    2.4981   19.2023   19.6393 N   0  0  0  0  0  0  0  0  0  0  0  0
    1.4903   18.3587   19.3286 C   0  0  0  0  0  0  0  0  0  0  0  0
    1.4352   20.4522   18.3988 H   0  0  0  0  0  0  0  0  0  0  0  0
  1  2  1  0  0  0
  2  3  1  0  0  0
  3  4  1  0  0  0
  3  5  2  0  0  0
  5  6  1  0  0  0
  6  7  1  0  0  0
  6  8  2  0  0  0
  8  9  1  0  0  0
  9 10  2  0  0  0
 10 11  1  0  0  0
 11 12  2  0  0  0
 12 13  1  0  0  0
 13  2  2  0  0  0
 13  8  1  0  0  0
  1 14  1  0  0  0
M  END
> <minimizedAffinity>
-8.98528

$$$$
OCNT-0496475


 17 19  0  0  0  0  0  0  0  0999 V2000
    3.6631   18.0246   21.2287 N   0  0  0  0  0  0  0  0  0  0  0  0
    3.8175   18.3631   19.7953 C   0  0  0  0  0  0  0  0  0  0  0  0
    4.1020   19.8650   19.5782 C   0  0  0  0  0  0  0  0  0  0  0  0
    5.1403   20.3177   20.5491 C   0  0  0  0  0  0  0  0  0  0  0  0
    5.5051   19.5909   21.6642 C   0  0  0  0  0  0  0  0  0  0  0  0
    6.4957   20.2882   22.4234 C   0  0  0  0  0  0  0  0  0  0  0  0
    6.8302   21.4998   21.8556 C   0  0  0  0  0  0  0  0  0  0  0  0
    5.9581   21.7978   20.4121 S   0  0  0  0  0  0  0  0  0  0  0  0
    4.9261   18.2368   21.9726 C   0  0  0  0  0  0  0  0  0  0  0  0
    3.1801   16.6418   21.3735 C   0  0  0  0  0  0  0  0  0  0  0  0
    1.8738   13.7862   21.5611 Cl  0  0  0  0  0  0  0  0  0  0  0  0
    1.3023   15.0904   20.5811 C   0  0  0  0  0  0  0  0  0  0  0  0
    0.1615   14.8596   19.8045 C   0  0  0  0  0  0  0  0  0  0  0  0
   -0.3620   15.8733   19.0029 C   0  0  0  0  0  0  0  0  0  0  0  0
    0.2523   17.1218   18.9765 C   0  0  0  0  0  0  0  0  0  0  0  0
    1.3911   17.3565   19.7493 C   0  0  0  0  0  0  0  0  0  0  0  0
    1.9355   16.3444   20.5628 C   0  0  0  0  0  0  0  0  0  0  0  0
 11 12  1  0  0  0
 12 13  2  0  0  0
 13 14  1  0  0  0
 14 15  2  0  0  0
 15 16  1  0  0  0
 16 17  2  0  0  0
 17 10  1  0  0  0
 10  1  1  0  0  0
  1  2  1  0  0  0
  2  3  1  0  0  0
  3  4  1  0  0  0
  4  5  2  0  0  0
  5  6  1  0  0  0
  6  7  2  0  0  0
  7  8  1  0  0  0
  5  9  1  0  0  0
 17 12  1  0  0  0
  9  1  1  0  0  0
  8  4  1  0  0  0
M  END
> <minimizedAffinity>
-10.26919

$$$$
OCNT-0497719


 23 25  0  0  0  0  0  0  0  0999 V2000
    2.5790   16.3881   20.9797 C   0  0  0  0  0  0  0  0  0  0  0  0
    2.3848   17.6041   20.3160 C   0  0  0  0  0  0  0  0  0  0  0  0
    3.3249   18.6331   20.4289 C   0  0  0  0  0  0  0  0  0  0  0  0
    4.4790   18.4808   21.2131 C   0  0  0  0  0  0  0  0  0  0  0  0
    4.6604   17.2606   21.8814 C   0  0  0  0  0  0  0  0  0  0  0  0
    3.7245   16.2266   21.7691 C   0  0  0  0  0  0  0  0  0  0  0  0
    5.4627   19.5701   21.3344 C   0  0  0  0  0  0  0  0  0  0  0  0
    6.5684   19.4564   22.1930 C   0  0  0  0  0  0  0  0  0  0  0  0
    7.5108   20.4841   22.2978 C   0  0  0  0  0  0  0  0  0  0  0  0
    7.3626   21.6454   21.5482 C   0  0  0  0  0  0  0  0  0  0  0  0
    6.2728   21.7801   20.6927 C   0  0  0  0  0  0  0  0  0  0  0  0
    5.3318   20.7509   20.5878 C   0  0  0  0  0  0  0  0  0  0  0  0
    1.5635   15.2782   20.8553 C   0  0  0  0  0  0  0  0  0  0  0  0
   -0.1905   14.6219   19.3611 O   0  0  0  0  0  0  0  0  0  0  0  0
    0.5283   15.5306   19.7694 C   0  0  0  0  0  0  0  0  0  0  0  0
    0.5255   16.8317   19.3241 N   0  0  0  0  0  0  0  0  0  0  0  0
    1.1460   17.5048   19.7560 H   0  0  0  0  0  0  0  0  0  0  0  0
   -0.2715   17.4106   18.3381 C   0  0  0  0  0  0  0  0  0  0  0  0
   -1.6550   17.3031   18.2865 C   0  0  0  0  0  0  0  0  0  0  0  0
   -2.3388   17.9299   17.2450 C   0  0  0  0  0  0  0  0  0  0  0  0
   -1.6252   18.6409   16.2894 C   0  0  0  0  0  0  0  0  0  0  0  0
   -0.2491   18.6966   16.4183 C   0  0  0  0  0  0  0  0  0  0  0  0
    0.4389   18.0995   17.4174 N   0  0  0  0  0  0  0  0  0  0  0  0
 14 15  2  0  0  0
 15 13  1  0  0  0
 13  1  1  0  0  0
  1  2  1  0  0  0
  2  3  2  0  0  0
  3  4  1  0  0  0
  4  7  1  0  0  0
  7  8  2  0  0  0
  8  9  1  0  0  0
  9 10  2  0  0  0
 10 11  1  0  0  0
 11 12  2  0  0  0
  4  5  2  0  0  0
  5  6  1  0  0  0
 15 16  1  0  0  0
 16 18  1  0  0  0
 18 19  2  0  0  0
 19 20  1  0  0  0
 20 21  2  0  0  0
 21 22  1  0  0  0
 22 23  2  0  0  0
  6  1  2  0  0  0
 23 18  1  0  0  0
 12  7  1  0  0  0
 16 17  1  0  0  0
M  END
> <minimizedAffinity>
-10.54508

$$$$
OCNT-0497926


 20 22  0  0  0  0  0  0  0  0999 V2000
    2.9452   18.3734   20.1975 C   0  0  0  0  0  0  0  0  0  0  0  0
    2.4776   19.4770   19.4836 C   0  0  0  0  0  0  0  0  0  0  0  0
    1.1403   19.2307   19.0592 C   0  0  0  0  0  0  0  0  0  0  0  0
    0.8450   17.9645   19.4841 C   0  0  0  0  0  0  0  0  0  0  0  0
   -0.2447   16.9549   19.4105 C   0  0  0  0  0  0  0  0  0  0  0  0
    0.4883   15.6548   19.8316 C   0  0  0  0  0  0  0  0  0  0  0  0
    1.7367   16.1061   20.6090 C   0  0  0  0  0  0  0  0  0  0  0  0
    1.9198   17.4797   20.1723 N   0  0  0  0  0  0  0  0  0  0  0  0
   -0.8573   16.8720   18.0310 C   0  0  0  0  0  0  0  0  0  0  0  0
   -0.5151   16.0972   17.1498 O   0  0  0  0  0  0  0  0  0  0  0  0
   -1.8637   17.7404   17.8080 O   0  0  0  0  0  0  0  0  0  0  0  0
   -2.1798   17.5151   16.9085 H   0  0  0  0  0  0  0  0  0  0  0  0
    4.7356   17.1075   21.0617 O   0  0  0  0  0  0  0  0  0  0  0  0
    4.2641   18.2069   20.7795 C   0  0  0  0  0  0  0  0  0  0  0  0
    5.1106   19.3992   21.0379 C   0  0  0  0  0  0  0  0  0  0  0  0
    6.1688   19.2931   21.9475 C   0  0  0  0  0  0  0  0  0  0  0  0
    6.9820   20.3984   22.1997 C   0  0  0  0  0  0  0  0  0  0  0  0
    6.7485   21.6027   21.5344 C   0  0  0  0  0  0  0  0  0  0  0  0
    5.7088   21.7038   20.6089 C   0  0  0  0  0  0  0  0  0  0  0  0
    4.8916   20.6015   20.3535 C   0  0  0  0  0  0  0  0  0  0  0  0
 13 14  2  0  0  0
 14 15  1  0  0  0
 15 16  2  0  0  0
 16 17  1  0  0  0
 17 18  2  0  0  0
 18 19  1  0  0  0
 19 20  2  0  0  0
 14  1  1  0  0  0
  1  2  2  0  0  0
  2  3  1  0  0  0
  3  4  2  0  0  0
  4  5  1  0  0  0
  5  9  1  0  0  0
  9 10  2  0  0  0
  9 11  1  0  0  0
  5  6  1  0  0  0
  6  7  1  0  0  0
  7  8  1  0  0  0
 20 15  1  0  0  0
  8  1  1  0  0  0
  8  4  1  0  0  0
 11 12  1  0  0  0
M  END
> <minimizedAffinity>
-10.79033

$$$$
OCNT-0497946


 16 16  0  0  0  0  0  0  0  0999 V2000
    3.4366   16.7584   21.9865 O   0  0  0  0  0  0  0  0  0  0  0  0
    2.9129   15.5393   21.7069 C   0  0  0  0  0  0  0  0  0  0  0  0
    3.2905   14.4741   22.1658 O   0  0  0  0  0  0  0  0  0  0  0  0
    1.7940   15.6635   20.7483 C   0  0  0  0  0  0  0  0  0  0  0  0
    0.9138   14.6218   20.4415 C   0  0  0  0  0  0  0  0  0  0  0  0
   -0.1116   14.8397   19.5222 C   0  0  0  0  0  0  0  0  0  0  0  0
   -0.2212   16.0932   18.9408 C   0  0  0  0  0  0  0  0  0  0  0  0
    0.6113   17.1208   19.2142 N   0  0  0  0  0  0  0  0  0  0  0  0
    1.6009   16.8833   20.1122 C   0  0  0  0  0  0  0  0  0  0  0  0
    4.8179   16.8996   21.6258 C   0  0  0  0  0  0  0  0  0  0  0  0
    5.3318   18.2314   22.1591 C   0  0  0  0  0  0  0  0  0  0  0  0
    4.4620   19.2793   21.7390 O   0  0  0  0  0  0  0  0  0  0  0  0
    4.6118   19.5686   20.3512 C   0  0  0  0  0  0  0  0  0  0  0  0
    4.5272   21.0773   20.1353 C   0  0  0  0  0  0  0  0  0  0  0  0
    6.9608   21.4928   20.7824 C   0  0  0  0  0  0  0  0  0  0  0  0
    5.5078   21.8947   20.9819 C   0  0  0  0  0  0  0  0  0  0  0  0
 15 16  1  0  0  0
 16 14  1  0  0  0
 14 13  1  0  0  0
 13 12  1  0  0  0
 12 11  1  0  0  0
 11 10  1  0  0  0
 10  1  1  0  0  0
  1  2  1  0  0  0
  2  3  2  0  0  0
  2  4  1  0  0  0
  4  5  1  0  0  0
  5  6  2  0  0  0
  6  7  1  0  0  0
  7  8  2  0  0  0
  8  9  1  0  0  0
  9  4  2  0  0  0
M  END
> <minimizedAffinity>
-7.51609

$$$$
OCNT-0497954


 21 23  0  0  0  0  0  0  0  0999 V2000
    1.2453   14.9042   22.0323 C   0  0  0  0  0  0  0  0  0  0  0  0
    1.5965   15.6206   20.9390 C   0  0  0  0  0  0  0  0  0  0  0  0
    2.8098   16.4800   21.0430 C   0  0  0  0  0  0  0  0  0  0  0  0
    4.0235   15.9973   21.5588 C   0  0  0  0  0  0  0  0  0  0  0  0
    5.1416   16.8298   21.6392 C   0  0  0  0  0  0  0  0  0  0  0  0
    5.0627   18.1486   21.1984 C   0  0  0  0  0  0  0  0  0  0  0  0
    3.8690   18.6356   20.6644 C   0  0  0  0  0  0  0  0  0  0  0  0
    2.7438   17.8061   20.5719 C   0  0  0  0  0  0  0  0  0  0  0  0
    1.2462   18.4833   19.8521 S   0  0  0  0  0  0  0  0  0  0  0  0
    0.5012   17.0003   19.1741 C   0  0  0  0  0  0  0  0  0  0  0  0
   -0.3143   17.1291   18.0415 C   0  0  0  0  0  0  0  0  0  0  0  0
   -0.8723   15.9987   17.4424 C   0  0  0  0  0  0  0  0  0  0  0  0
   -0.6011   14.7376   17.9653 C   0  0  0  0  0  0  0  0  0  0  0  0
   -1.2666   13.3398   17.2143 Cl  0  0  0  0  0  0  0  0  0  0  0  0
    0.2061   14.5961   19.0931 C   0  0  0  0  0  0  0  0  0  0  0  0
    0.7322   15.7277   19.7341 C   0  0  0  0  0  0  0  0  0  0  0  0
   -0.0105   14.1065   22.2883 C   0  0  0  0  0  0  0  0  0  0  0  0
   -0.3087   13.9944   23.7952 C   0  0  0  0  0  0  0  0  0  0  0  0
   -1.9775   13.6936   25.5506 C   0  0  0  0  0  0  0  0  0  0  0  0
   -1.5882   13.3780   24.1784 N   0  0  0  0  0  0  0  0  0  0  0  0
   -1.6173   11.9375   23.9434 C   0  0  0  0  0  0  0  0  0  0  0  0
 19 20  1  0  0  0
 20 21  1  0  0  0
 20 18  1  0  0  0
 18 17  1  0  0  0
 17  1  1  0  0  0
  1  2  2  0  0  0
  2  3  1  0  0  0
  3  4  2  0  0  0
  4  5  1  0  0  0
  5  6  2  0  0  0
  6  7  1  0  0  0
  7  8  2  0  0  0
  8  9  1  0  0  0
  9 10  1  0  0  0
 10 11  1  0  0  0
 11 12  2  0  0  0
 12 13  1  0  0  0
 13 14  1  0  0  0
 13 15  2  0  0  0
 15 16  1  0  0  0
 16  2  1  0  0  0
  8  3  1  0  0  0
 16 10  2  0  0  0
M  END
> <minimizedAffinity>
-7.66581

$$$$
OCNT-0497994


 26 27  0  0  0  0  0  0  0  0999 V2000
    2.6024   16.8382   20.4066 C   0  0  0  0  0  0  0  0  0  0  0  0
    1.7348   15.9437   20.9322 C   0  0  0  0  0  0  0  0  0  0  0  0
    2.0036   15.1075   22.1580 C   0  0  0  0  0  0  0  0  0  0  0  0
    0.5143   15.7278   20.3095 N   0  0  0  0  0  0  0  0  0  0  0  0
    0.1358   16.2995   19.1043 C   0  0  0  0  0  0  0  0  0  0  0  0
   -1.1544   15.7923   18.5129 C   0  0  0  0  0  0  0  0  0  0  0  0
    0.9394   17.2188   18.5239 C   0  0  0  0  0  0  0  0  0  0  0  0
    2.2679   17.6399   19.1489 C   0  0  0  0  0  0  0  0  0  0  0  0
   -0.0819   14.9966   20.6903 H   0  0  0  0  0  0  0  0  0  0  0  0
    2.2778   19.1499   19.4454 C   0  0  0  0  0  0  0  0  0  0  0  0
    1.0451   19.7959   19.6945 C   0  0  0  0  0  0  0  0  0  0  0  0
    0.9831   21.1603   19.9696 C   0  0  0  0  0  0  0  0  0  0  0  0
    2.1519   21.9122   20.0032 C   0  0  0  0  0  0  0  0  0  0  0  0
    3.3854   21.3012   19.7629 C   0  0  0  0  0  0  0  0  0  0  0  0
    4.7868   22.3171   19.8296 Cl  0  0  0  0  0  0  0  0  0  0  0  0
    3.4591   19.9235   19.4839 C   0  0  0  0  0  0  0  0  0  0  0  0
    5.0063   19.1918   19.1957 Cl  0  0  0  0  0  0  0  0  0  0  0  0
    3.9051   17.1117   21.0493 C   0  0  0  0  0  0  0  0  0  0  0  0
    4.9667   16.6303   20.6871 O   0  0  0  0  0  0  0  0  0  0  0  0
    3.7184   17.9723   22.0783 O   0  0  0  0  0  0  0  0  0  0  0  0
    5.4598   19.6171   22.4227 C   0  0  0  0  0  0  0  0  0  0  0  0
    4.8849   18.2812   22.8539 C   0  0  0  0  0  0  0  0  0  0  0  0
    0.6294   17.8571   17.2296 C   0  0  0  0  0  0  0  0  0  0  0  0
    1.1095   17.4964   16.1674 O   0  0  0  0  0  0  0  0  0  0  0  0
   -0.1886   18.9220   17.4236 O   0  0  0  0  0  0  0  0  0  0  0  0
   -1.4944   18.7504   16.8732 C   0  0  0  0  0  0  0  0  0  0  0  0
 21 22  1  0  0  0
 22 20  1  0  0  0
 20 18  1  0  0  0
 18 19  2  0  0  0
 18  1  1  0  0  0
  1  2  2  0  0  0
  2  3  1  0  0  0
  2  4  1  0  0  0
  4  5  1  0  0  0
  5  6  1  0  0  0
  5  7  2  0  0  0
  7 23  1  0  0  0
 23 24  2  0  0  0
 23 25  1  0  0  0
 25 26  1  0  0  0
  7  8  1  0  0  0
  8 10  1  0  0  0
 10 11  2  0  0  0
 11 12  1  0  0  0
 12 13  2  0  0  0
 13 14  1  0  0  0
 14 15  1  0  0  0
 14 16  2  0  0  0
 16 17  1  0  0  0
  8  1  1  0  0  0
 16 10  1  0  0  0
  4  9  1  0  0  0
M  END
> <minimizedAffinity>
-3.59585

$$$$
OCNT-0498014


 26 27  0  0  0  0  0  0  0  0999 V2000
    2.6257   16.9087   20.5397 C   0  0  0  0  0  0  0  0  0  0  0  0
    1.7878   15.9753   21.0378 C   0  0  0  0  0  0  0  0  0  0  0  0
    2.0524   15.1622   22.2752 C   0  0  0  0  0  0  0  0  0  0  0  0
    0.5989   15.7047   20.3768 N   0  0  0  0  0  0  0  0  0  0  0  0
    0.2716   16.2072   19.1232 C   0  0  0  0  0  0  0  0  0  0  0  0
   -0.9377   15.5939   18.4640 C   0  0  0  0  0  0  0  0  0  0  0  0
    1.0523   17.1581   18.5615 C   0  0  0  0  0  0  0  0  0  0  0  0
    2.3040   17.6908   19.2710 C   0  0  0  0  0  0  0  0  0  0  0  0
    0.0441   14.9293   20.7229 H   0  0  0  0  0  0  0  0  0  0  0  0
    2.1524   19.1972   19.5452 C   0  0  0  0  0  0  0  0  0  0  0  0
    0.8593   19.7344   19.7337 C   0  0  0  0  0  0  0  0  0  0  0  0
    0.6601   21.1051   19.9375 C   0  0  0  0  0  0  0  0  0  0  0  0
    1.7455   21.9785   19.9589 C   0  0  0  0  0  0  0  0  0  0  0  0
    3.0362   21.4824   19.7881 C   0  0  0  0  0  0  0  0  0  0  0  0
    3.2327   20.1041   19.5905 C   0  0  0  0  0  0  0  0  0  0  0  0
    4.6162   19.6591   19.4705 N   0  0  0  0  0  0  0  0  0  0  0  0
    4.8718   18.8241   18.5862 O   0  0  0  0  0  0  0  0  0  0  0  0
    5.4452   20.1884   20.2242 O   0  0  0  0  0  0  0  0  0  0  0  0
    3.9458   17.1345   21.1551 C   0  0  0  0  0  0  0  0  0  0  0  0
    4.9764   16.6072   20.7741 O   0  0  0  0  0  0  0  0  0  0  0  0
    5.0297   18.2692   22.8876 C   0  0  0  0  0  0  0  0  0  0  0  0
    3.8058   17.9819   22.2091 O   0  0  0  0  0  0  0  0  0  0  0  0
    0.8035   17.7684   17.2355 C   0  0  0  0  0  0  0  0  0  0  0  0
    1.3422   17.3772   16.2075 O   0  0  0  0  0  0  0  0  0  0  0  0
    0.0077   18.8617   17.3518 O   0  0  0  0  0  0  0  0  0  0  0  0
   -1.3251   18.6571   16.8913 C   0  0  0  0  0  0  0  0  0  0  0  0
 21 22  1  0  0  0
 22 19  1  0  0  0
 19 20  2  0  0  0
 19  1  1  0  0  0
  1  2  2  0  0  0
  2  3  1  0  0  0
  2  4  1  0  0  0
  4  5  1  0  0  0
  5  6  1  0  0  0
  5  7  2  0  0  0
  7 23  1  0  0  0
 23 24  2  0  0  0
 23 25  1  0  0  0
 25 26  1  0  0  0
  7  8  1  0  0  0
  8 10  1  0  0  0
 10 11  2  0  0  0
 11 12  1  0  0  0
 12 13  2  0  0  0
 13 14  1  0  0  0
 14 15  2  0  0  0
 15 16  1  0  0  0
 16 17  2  0  0  0
 16 18  1  0  0  0
  8  1  1  0  0  0
 15 10  1  0  0  0
  4  9  1  0  0  0
M  CHG 1  16   1
M  CHG 1  18  -1
M  END
> <minimizedAffinity>
-1.66562

$$$$
OCNT-0498030


 27 29  0  0  0  0  0  0  0  0999 V2000
    0.3729   16.6265   18.6444 C   0  0  0  0  0  0  0  0  0  0  0  0
   -0.3601   15.7068   17.8817 C   0  0  0  0  0  0  0  0  0  0  0  0
   -0.6392   14.4311   18.3799 C   0  0  0  0  0  0  0  0  0  0  0  0
   -0.2027   14.0606   19.6524 C   0  0  0  0  0  0  0  0  0  0  0  0
    0.5156   14.9673   20.4347 C   0  0  0  0  0  0  0  0  0  0  0  0
    0.8140   16.2377   19.9252 C   0  0  0  0  0  0  0  0  0  0  0  0
    0.6641   18.0476   18.1813 C   0  0  0  0  0  0  0  0  0  0  0  0
   -0.5502   18.8403   17.6874 C   0  0  0  0  0  0  0  0  0  0  0  0
    2.7544   18.3354   19.4270 N   0  0  0  0  0  0  0  0  0  0  0  0
    1.4731   18.8052   19.2467 C   0  0  0  0  0  0  0  0  0  0  0  0
    0.9771   19.7729   19.8235 O   0  0  0  0  0  0  0  0  0  0  0  0
    3.0953   17.5700   18.8612 H   0  0  0  0  0  0  0  0  0  0  0  0
    6.2228   21.6788   20.6758 C   0  0  0  0  0  0  0  0  0  0  0  0
    5.4676   20.4055   20.9046 C   0  0  0  0  0  0  0  0  0  0  0  0
    5.7134   19.6111   22.0246 C   0  0  0  0  0  0  0  0  0  0  0  0
    4.9601   18.4615   22.1905 C   0  0  0  0  0  0  0  0  0  0  0  0
    3.9989   18.0578   21.3298 N   0  0  0  0  0  0  0  0  0  0  0  0
    3.7587   18.8410   20.2542 C   0  0  0  0  0  0  0  0  0  0  0  0
    4.4560   20.0177   20.0163 C   0  0  0  0  0  0  0  0  0  0  0  0
    0.9753   14.5390   21.7834 C   0  0  0  0  0  0  0  0  0  0  0  0
    2.1637   14.6458   22.0775 O   0  0  0  0  0  0  0  0  0  0  0  0
    0.0283   13.9941   22.7877 C   0  0  0  0  0  0  0  0  0  0  0  0
   -0.3751   12.6537   22.7670 C   0  0  0  0  0  0  0  0  0  0  0  0
   -1.2847   12.1877   23.7188 C   0  0  0  0  0  0  0  0  0  0  0  0
   -1.7767   13.0507   24.7005 C   0  0  0  0  0  0  0  0  0  0  0  0
   -1.3541   14.3793   24.7397 C   0  0  0  0  0  0  0  0  0  0  0  0
   -0.4477   14.8507   23.7871 C   0  0  0  0  0  0  0  0  0  0  0  0
 13 14  1  0  0  0
 14 15  2  0  0  0
 15 16  1  0  0  0
 16 17  2  0  0  0
 17 18  1  0  0  0
 18  9  1  0  0  0
  9 10  1  0  0  0
 10 11  2  0  0  0
 10  7  1  0  0  0
  7  8  1  0  0  0
  7  1  1  0  0  0
  1  2  2  0  0  0
  2  3  1  0  0  0
  3  4  2  0  0  0
  4  5  1  0  0  0
  5 20  1  0  0  0
 20 21  2  0  0  0
 20 22  1  0  0  0
 22 23  2  0  0  0
 23 24  1  0  0  0
 24 25  2  0  0  0
 25 26  1  0  0  0
 26 27  2  0  0  0
  5  6  2  0  0  0
 18 19  2  0  0  0
 19 14  1  0  0  0
  6  1  1  0  0  0
 27 22  1  0  0  0
  9 12  1  0  0  0
M  END
> <minimizedAffinity>
-10.81922

$$$$
OCNT-0498090


 29 30  0  0  0  0  0  0  0  0999 V2000
    0.9609   17.1609   18.5772 C   0  0  0  0  0  0  0  0  0  0  0  0
    0.2212   16.1741   19.1325 C   0  0  0  0  0  0  0  0  0  0  0  0
   -1.0029   15.5583   18.5054 C   0  0  0  0  0  0  0  0  0  0  0  0
    0.6118   15.6327   20.3486 N   0  0  0  0  0  0  0  0  0  0  0  0
    1.7897   15.9429   21.0111 C   0  0  0  0  0  0  0  0  0  0  0  0
    2.1001   15.1111   22.2282 C   0  0  0  0  0  0  0  0  0  0  0  0
    2.5878   16.9165   20.5198 C   0  0  0  0  0  0  0  0  0  0  0  0
    2.2186   17.6834   19.2585 C   0  0  0  0  0  0  0  0  0  0  0  0
    0.0283   14.8998   20.7461 H   0  0  0  0  0  0  0  0  0  0  0  0
    2.1616   19.1967   19.5081 C   0  0  0  0  0  0  0  0  0  0  0  0
    0.9125   19.7625   19.8338 C   0  0  0  0  0  0  0  0  0  0  0  0
    0.7714   21.1353   20.0645 C   0  0  0  0  0  0  0  0  0  0  0  0
    1.8730   21.9830   19.9763 C   0  0  0  0  0  0  0  0  0  0  0  0
    3.1224   21.4596   19.6572 C   0  0  0  0  0  0  0  0  0  0  0  0
    3.2556   20.0811   19.4275 C   0  0  0  0  0  0  0  0  0  0  0  0
    4.5935   19.6230   19.1044 N   0  0  0  0  0  0  0  0  0  0  0  0
    5.5284   20.3842   19.3846 O   0  0  0  0  0  0  0  0  0  0  0  0
    4.6882   18.5427   18.5084 O   0  0  0  0  0  0  0  0  0  0  0  0
    0.6675   17.7760   17.2646 C   0  0  0  0  0  0  0  0  0  0  0  0
    1.1552   17.3784   16.2172 O   0  0  0  0  0  0  0  0  0  0  0  0
   -1.4507   18.6940   16.9209 C   0  0  0  0  0  0  0  0  0  0  0  0
   -0.1230   18.8657   17.4151 O   0  0  0  0  0  0  0  0  0  0  0  0
    3.8873   17.2894   21.1154 C   0  0  0  0  0  0  0  0  0  0  0  0
    4.9496   16.7984   20.7658 O   0  0  0  0  0  0  0  0  0  0  0  0
    3.7225   18.2943   22.0076 O   0  0  0  0  0  0  0  0  0  0  0  0
    4.8881   18.5897   22.7875 C   0  0  0  0  0  0  0  0  0  0  0  0
    5.6500   19.7464   22.1290 C   0  0  0  0  0  0  0  0  0  0  0  0
    7.1614   19.5940   22.3154 C   0  0  0  0  0  0  0  0  0  0  0  0
    5.1776   21.0847   22.6930 C   0  0  0  0  0  0  0  0  0  0  0  0
 21 22  1  0  0  0
 22 19  1  0  0  0
 19 20  2  0  0  0
 19  1  1  0  0  0
  1  2  2  0  0  0
  2  3  1  0  0  0
  2  4  1  0  0  0
  4  5  1  0  0  0
  5  6  1  0  0  0
  5  7  2  0  0  0
  7 23  1  0  0  0
 23 24  2  0  0  0
 23 25  1  0  0  0
 25 26  1  0  0  0
 26 27  1  0  0  0
 27 28  1  0  0  0
 27 29  1  0  0  0
  7  8  1  0  0  0
  8 10  1  0  0  0
 10 11  2  0  0  0
 11 12  1  0  0  0
 12 13  2  0  0  0
 13 14  1  0  0  0
 14 15  2  0  0  0
 15 16  1  0  0  0
 16 17  2  0  0  0
 16 18  1  0  0  0
  8  1  1  0  0  0
 15 10  1  0  0  0
  4  9  1  0  0  0
M  CHG 1  16   1
M  CHG 1  18  -1
M  END
> <minimizedAffinity>
-1.93740

$$$$
OCNT-0498125


 27 31  0  0  0  0  0  0  0  0999 V2000
    2.6164   13.6671   21.8207 C   0  0  0  0  0  0  0  0  0  0  0  0
    1.5779   14.7557   22.1832 C   0  0  0  0  0  0  0  0  0  0  0  0
    1.2029   14.6304   23.6901 C   0  0  0  0  0  0  0  0  0  0  0  0
    0.3867   13.3853   24.0355 C   0  0  0  0  0  0  0  0  0  0  0  0
   -0.8767   13.2977   23.1861 C   0  0  0  0  0  0  0  0  0  0  0  0
   -1.5528   12.0845   23.5097 O   0  0  0  0  0  0  0  0  0  0  0  0
   -0.5382   13.3284   21.6948 C   0  0  0  0  0  0  0  0  0  0  0  0
    0.3220   14.5188   21.3290 C   0  0  0  0  0  0  0  0  0  0  0  0
   -0.0278   15.3168   20.3036 C   0  0  0  0  0  0  0  0  0  0  0  0
    0.7588   16.5027   19.8399 C   0  0  0  0  0  0  0  0  0  0  0  0
    2.1813   16.5547   20.4168 C   0  0  0  0  0  0  0  0  0  0  0  0
    2.1545   16.2065   21.9342 C   0  0  0  0  0  0  0  0  0  0  0  0
    3.5074   16.4874   22.6447 C   0  0  0  0  0  0  0  0  0  0  0  0
    4.1344   17.8530   22.3009 C   0  0  0  0  0  0  0  0  0  0  0  0
    4.2448   18.0548   20.7806 C   0  0  0  0  0  0  0  0  0  0  0  0
    5.2216   17.0280   20.1528 C   0  0  0  0  0  0  0  0  0  0  0  0
    4.5685   19.4417   20.2352 C   0  0  0  0  0  0  0  0  0  0  0  0
    3.8373   19.6729   19.1236 C   0  0  0  0  0  0  0  0  0  0  0  0
    2.8614   18.5639   18.8442 C   0  0  0  0  0  0  0  0  0  0  0  0
    2.7970   17.9441   20.2356 C   0  0  0  0  0  0  0  0  0  0  0  0
   -2.3775   12.0649   22.9944 H   0  0  0  0  0  0  0  0  0  0  0  0
    5.5525   20.3797   20.7936 C   0  0  0  0  0  0  0  0  0  0  0  0
    6.6604   20.8377   20.0771 C   0  0  0  0  0  0  0  0  0  0  0  0
    7.5723   21.7162   20.6650 C   0  0  0  0  0  0  0  0  0  0  0  0
    7.3554   22.1162   21.9709 C   0  0  0  0  0  0  0  0  0  0  0  0
    6.3098   21.7002   22.7102 N   0  0  0  0  0  0  0  0  0  0  0  0
    5.4435   20.8466   22.1064 C   0  0  0  0  0  0  0  0  0  0  0  0
  2  1  1  0  0  0
  2  3  1  0  0  0
  3  4  1  0  0  0
  4  5  1  0  0  0
  5  6  1  0  0  0
  5  7  1  0  0  0
  7  8  1  0  0  0
  8  9  2  0  0  0
  9 10  1  0  0  0
 10 11  1  0  0  0
 11 12  1  0  0  0
 12 13  1  0  0  0
 13 14  1  0  0  0
 14 15  1  0  0  0
 15 16  1  0  0  0
 15 17  1  0  0  0
 17 22  1  0  0  0
 22 23  1  0  0  0
 23 24  2  0  0  0
 24 25  1  0  0  0
 25 26  2  0  0  0
 26 27  1  0  0  0
 17 18  2  0  0  0
 18 19  1  0  0  0
 19 20  1  0  0  0
  8  2  1  0  0  0
 20 11  1  0  0  0
 12  2  1  0  0  0
 20 15  1  0  0  0
 27 22  2  0  0  0
  6 21  1  0  0  0
M  END
> <minimizedAffinity>
-1.36054

$$$$
OCNT-0498126


 12 13  0  0  0  0  0  0  0  0999 V2000
    4.7732   17.5296   22.3582 O   0  0  0  0  0  0  0  0  0  0  0  0
    3.7887   17.1579   21.7370 C   0  0  0  0  0  0  0  0  0  0  0  0
    3.1255   17.9087   20.7941 N   0  0  0  0  0  0  0  0  0  0  0  0
    2.0851   17.1623   20.3228 C   0  0  0  0  0  0  0  0  0  0  0  0
    1.1291   17.4524   19.3786 C   0  0  0  0  0  0  0  0  0  0  0  0
    0.1892   16.4512   19.1239 C   0  0  0  0  0  0  0  0  0  0  0  0
   -1.0450   16.7292   17.9555 Cl  0  0  0  0  0  0  0  0  0  0  0  0
    0.2295   15.2162   19.8042 C   0  0  0  0  0  0  0  0  0  0  0  0
    1.2206   14.9605   20.7595 C   0  0  0  0  0  0  0  0  0  0  0  0
    2.1388   15.9596   20.9972 C   0  0  0  0  0  0  0  0  0  0  0  0
    3.1893   15.9016   21.8982 O   0  0  0  0  0  0  0  0  0  0  0  0
    3.3973   18.8416   20.5307 H   0  0  0  0  0  0  0  0  0  0  0  0
  1  2  2  0  0  0
  2  3  1  0  0  0
  3  4  1  0  0  0
  4  5  1  0  0  0
  5  6  2  0  0  0
  6  7  1  0  0  0
  6  8  1  0  0  0
  8  9  2  0  0  0
  9 10  1  0  0  0
 10 11  1  0  0  0
 11  2  1  0  0  0
 10  4  2  0  0  0
  3 12  1  0  0  0
M  END
> <minimizedAffinity>
-7.36271

$$$$
OCNT-0498430


 19 21  0  0  0  0  0  0  0  0999 V2000
    5.3009   20.1684   21.4178 C   0  0  0  0  0  0  0  0  0  0  0  0
    5.0055   18.9649   22.0581 C   0  0  0  0  0  0  0  0  0  0  0  0
    4.0105   18.1363   21.5326 C   0  0  0  0  0  0  0  0  0  0  0  0
    3.2955   18.5038   20.3805 C   0  0  0  0  0  0  0  0  0  0  0  0
    3.5984   19.7272   19.7628 C   0  0  0  0  0  0  0  0  0  0  0  0
    4.5950   20.5620   20.2796 C   0  0  0  0  0  0  0  0  0  0  0  0
    2.2674   17.6094   19.8667 C   0  0  0  0  0  0  0  0  0  0  0  0
    1.4341   17.8402   18.7913 C   0  0  0  0  0  0  0  0  0  0  0  0
    0.6363   16.7278   18.6941 N   0  0  0  0  0  0  0  0  0  0  0  0
   -0.3787   16.4403   17.7842 C   0  0  0  0  0  0  0  0  0  0  0  0
   -1.0337   15.2708   17.8835 C   0  0  0  0  0  0  0  0  0  0  0  0
   -0.6602   14.3420   18.9406 C   0  0  0  0  0  0  0  0  0  0  0  0
    0.3230   14.6292   19.8167 C   0  0  0  0  0  0  0  0  0  0  0  0
    1.0197   15.8669   19.7154 C   0  0  0  0  0  0  0  0  0  0  0  0
    1.9978   16.3796   20.4309 N   0  0  0  0  0  0  0  0  0  0  0  0
    7.3687   21.8573   20.6344 C   0  0  0  0  0  0  0  0  0  0  0  0
    6.5644   21.2248   22.0833 S   0  0  0  0  0  0  0  0  0  0  0  0
    7.5072   20.3837   22.7954 O   0  0  0  0  0  0  0  0  0  0  0  0
    5.9060   22.3330   22.7493 O   0  0  0  0  0  0  0  0  0  0  0  0
 16 17  1  0  0  0
 17 18  2  0  0  0
 17 19  2  0  0  0
 17  1  1  0  0  0
  1  2  1  0  0  0
  2  3  2  0  0  0
  3  4  1  0  0  0
  4  7  1  0  0  0
  7  8  2  0  0  0
  8  9  1  0  0  0
  9 10  1  0  0  0
 10 11  2  0  0  0
 11 12  1  0  0  0
 12 13  2  0  0  0
 13 14  1  0  0  0
 14 15  2  0  0  0
  4  5  2  0  0  0
  5  6  1  0  0  0
  6  1  2  0  0  0
 15  7  1  0  0  0
 14  9  1  0  0  0
M  END
> <minimizedAffinity>
-8.62834

$$$$
OCNT-1755349


 20 20  0  0  0  0  0  0  0  0999 V2000
    2.5930   18.6154   19.8616 C   0  0  0  0  0  0  0  0  0  0  0  0
    3.5406   18.1280   20.7705 C   0  0  0  0  0  0  0  0  0  0  0  0
    4.6260   18.9203   21.2015 C   0  0  0  0  0  0  0  0  0  0  0  0
    4.7421   20.2135   20.6737 C   0  0  0  0  0  0  0  0  0  0  0  0
    3.7996   20.7232   19.7721 C   0  0  0  0  0  0  0  0  0  0  0  0
    2.7293   19.9211   19.3727 C   0  0  0  0  0  0  0  0  0  0  0  0
    1.0655   16.6235   19.8290 C   0  0  0  0  0  0  0  0  0  0  0  0
    1.6148   15.9387   20.6847 O   0  0  0  0  0  0  0  0  0  0  0  0
    1.4865   17.8737   19.4002 N   0  0  0  0  0  0  0  0  0  0  0  0
    0.9506   18.2936   18.6504 H   0  0  0  0  0  0  0  0  0  0  0  0
   -0.2560   14.6281   19.0553 C   0  0  0  0  0  0  0  0  0  0  0  0
   -0.2010   16.1541   19.1052 C   0  0  0  0  0  0  0  0  0  0  0  0
   -0.2738   16.7308   17.6922 C   0  0  0  0  0  0  0  0  0  0  0  0
    5.6088   18.3645   22.1991 C   0  0  0  0  0  0  0  0  0  0  0  0
    5.7956   17.0209   22.0669 F   0  0  0  0  0  0  0  0  0  0  0  0
    6.8430   18.9192   22.0881 F   0  0  0  0  0  0  0  0  0  0  0  0
    5.2092   18.5409   23.4873 F   0  0  0  0  0  0  0  0  0  0  0  0
    5.8593   21.0769   21.0329 N   0  0  0  0  0  0  0  0  0  0  0  0
    6.8508   21.0492   20.2962 O   0  0  0  0  0  0  0  0  0  0  0  0
    5.7148   21.7968   22.0287 O   0  0  0  0  0  0  0  0  0  0  0  0
 11 12  1  0  0  0
 12 13  1  0  0  0
 12  7  1  0  0  0
  7  8  2  0  0  0
  7  9  1  0  0  0
  9  1  1  0  0  0
  1  2  2  0  0  0
  2  3  1  0  0  0
  3 14  1  0  0  0
 14 15  1  0  0  0
 14 16  1  0  0  0
 14 17  1  0  0  0
  3  4  2  0  0  0
  4 18  1  0  0  0
 18 19  2  0  0  0
 18 20  1  0  0  0
  4  5  1  0  0  0
  5  6  2  0  0  0
  6  1  1  0  0  0
  9 10  1  0  0  0
M  CHG 1  18   1
M  CHG 1  20  -1
M  END
> <minimizedAffinity>
-10.04572

$$$$
OCNT-1911800


 25 28  0  0  0  0  0  0  0  0999 V2000
    0.1833   16.9782   19.3043 C   0  0  0  0  0  0  0  0  0  0  0  0
   -0.4798   16.0697   18.2429 C   0  0  0  0  0  0  0  0  0  0  0  0
   -0.6976   16.7725   16.9036 C   0  0  0  0  0  0  0  0  0  0  0  0
   -1.1627   18.1330   17.1163 N   0  0  0  0  0  0  0  0  0  0  0  0
   -0.1635   18.9726   17.7849 C   0  0  0  0  0  0  0  0  0  0  0  0
    0.8641   18.1980   18.6422 C   0  0  0  0  0  0  0  0  0  0  0  0
   -1.4295   18.5625   16.2304 H   0  0  0  0  0  0  0  0  0  0  0  0
    3.5369   13.8840   22.6479 F   0  0  0  0  0  0  0  0  0  0  0  0
    2.7475   14.6206   21.8554 C   0  0  0  0  0  0  0  0  0  0  0  0
    3.1202   15.9192   21.5342 C   0  0  0  0  0  0  0  0  0  0  0  0
    2.2985   16.6878   20.7079 C   0  0  0  0  0  0  0  0  0  0  0  0
    1.0972   16.1595   20.2046 C   0  0  0  0  0  0  0  0  0  0  0  0
    0.7455   14.8406   20.5382 C   0  0  0  0  0  0  0  0  0  0  0  0
    1.5692   14.0738   21.3641 C   0  0  0  0  0  0  0  0  0  0  0  0
    1.5161   19.1448   19.6659 C   0  0  0  0  0  0  0  0  0  0  0  0
    2.4350   19.9982   18.9785 O   0  0  0  0  0  0  0  0  0  0  0  0
    3.5293   20.4319   19.6772 C   0  0  0  0  0  0  0  0  0  0  0  0
    4.2028   19.4252   20.3793 C   0  0  0  0  0  0  0  0  0  0  0  0
    5.3171   19.7749   21.1113 C   0  0  0  0  0  0  0  0  0  0  0  0
    5.7689   21.0710   21.1636 C   0  0  0  0  0  0  0  0  0  0  0  0
    5.1299   22.0864   20.4873 C   0  0  0  0  0  0  0  0  0  0  0  0
    3.9943   21.7593   19.7347 C   0  0  0  0  0  0  0  0  0  0  0  0
    6.8779   21.2046   21.9380 O   0  0  0  0  0  0  0  0  0  0  0  0
    7.0728   19.8413   22.3688 C   0  0  0  0  0  0  0  0  0  0  0  0
    6.0856   18.9277   21.8469 O   0  0  0  0  0  0  0  0  0  0  0  0
  8  9  1  0  0  0
  9 10  1  0  0  0
 10 11  2  0  0  0
 11 12  1  0  0  0
 12  1  1  0  0  0
  1  2  1  0  0  0
  2  3  1  0  0  0
  3  4  1  0  0  0
  4  5  1  0  0  0
  5  6  1  0  0  0
  6 15  1  0  0  0
 15 16  1  0  0  0
 16 17  1  0  0  0
 17 18  2  0  0  0
 18 19  1  0  0  0
 19 20  2  0  0  0
 20 21  1  0  0  0
 21 22  2  0  0  0
 20 23  1  0  0  0
 23 24  1  0  0  0
 24 25  1  0  0  0
 12 13  2  0  0  0
 13 14  1  0  0  0
 14  9  2  0  0  0
  6  1  1  0  0  0
 22 17  1  0  0  0
 25 19  1  0  0  0
  4  7  1  0  0  0
M  END
> <minimizedAffinity>
-11.72433

$$$$
OCNT-2308460


 26 29  0  0  0  0  0  0  0  0999 V2000
    3.6239   17.3540   21.2783 N   0  0  0  0  0  0  0  0  0  0  0  0
    4.2760   18.0416   22.2863 C   0  0  0  0  0  0  0  0  0  0  0  0
    4.1051   17.9168   23.4928 O   0  0  0  0  0  0  0  0  0  0  0  0
    3.7846   17.6645   20.3290 H   0  0  0  0  0  0  0  0  0  0  0  0
    5.2541   19.0661   21.8201 C   0  0  0  0  0  0  0  0  0  0  0  0
    6.6009   18.9098   22.1850 C   0  0  0  0  0  0  0  0  0  0  0  0
    7.5808   19.8275   21.7855 C   0  0  0  0  0  0  0  0  0  0  0  0
    7.1490   20.8996   20.9992 C   0  0  0  0  0  0  0  0  0  0  0  0
    5.8242   21.0680   20.6107 C   0  0  0  0  0  0  0  0  0  0  0  0
    4.8516   20.1421   21.0129 C   0  0  0  0  0  0  0  0  0  0  0  0
    5.7077   22.1950   19.8440 N   0  0  0  0  0  0  0  0  0  0  0  0
    6.9093   22.7461   19.7373 N   0  0  0  0  0  0  0  0  0  0  0  0
    7.7733   21.9728   20.4213 N   0  0  0  0  0  0  0  0  0  0  0  0
    9.1643   22.3371   20.4620 C   0  0  0  0  0  0  0  0  0  0  0  0
   -0.2613   13.1426   21.6787 C   0  0  0  0  0  0  0  0  0  0  0  0
    0.7449   14.2548   21.5375 C   0  0  0  0  0  0  0  0  0  0  0  0
    1.5926   14.5218   22.6266 C   0  0  0  0  0  0  0  0  0  0  0  0
    2.5502   15.5371   22.5698 C   0  0  0  0  0  0  0  0  0  0  0  0
    2.6820   16.3124   21.4242 C   0  0  0  0  0  0  0  0  0  0  0  0
    1.8422   16.0494   20.3330 C   0  0  0  0  0  0  0  0  0  0  0  0
    0.8655   15.0289   20.3629 C   0  0  0  0  0  0  0  0  0  0  0  0
    0.0143   14.8071   19.1843 C   0  0  0  0  0  0  0  0  0  0  0  0
   -0.5067   13.6921   18.7039 N   0  0  0  0  0  0  0  0  0  0  0  0
   -1.2038   14.0900   17.5929 C   0  0  0  0  0  0  0  0  0  0  0  0
   -1.0842   15.4449   17.4312 C   0  0  0  0  0  0  0  0  0  0  0  0
   -0.3075   15.9209   18.4419 O   0  0  0  0  0  0  0  0  0  0  0  0
 15 16  1  0  0  0
 16 17  1  0  0  0
 17 18  2  0  0  0
 18 19  1  0  0  0
 19  1  1  0  0  0
  1  2  1  0  0  0
  2  3  2  0  0  0
  2  5  1  0  0  0
  5  6  2  0  0  0
  6  7  1  0  0  0
  7  8  2  0  0  0
  8  9  1  0  0  0
  9 10  2  0  0  0
  9 11  1  0  0  0
 11 12  2  0  0  0
 12 13  1  0  0  0
 13 14  1  0  0  0
 19 20  2  0  0  0
 20 21  1  0  0  0
 21 22  1  0  0  0
 22 23  2  0  0  0
 23 24  1  0  0  0
 24 25  2  0  0  0
 25 26  1  0  0  0
 21 16  2  0  0  0
 26 22  1  0  0  0
 10  5  1  0  0  0
 13  8  1  0  0  0
  1  4  1  0  0  0
M  END
> <minimizedAffinity>
-2.34068

$$$$
OCNT-2308465


 21 24  0  0  0  0  0  0  0  0999 V2000
    3.1919   17.0543   21.1128 C   0  0  0  0  0  0  0  0  0  0  0  0
    3.1697   15.8745   21.7564 N   0  0  0  0  0  0  0  0  0  0  0  0
    2.0274   15.2475   21.2683 O   0  0  0  0  0  0  0  0  0  0  0  0
    1.4641   16.1105   20.3781 C   0  0  0  0  0  0  0  0  0  0  0  0
    2.1310   17.2340   20.2473 N   0  0  0  0  0  0  0  0  0  0  0  0
    5.2840   17.8383   22.2113 C   0  0  0  0  0  0  0  0  0  0  0  0
    6.2901   18.7912   22.4104 C   0  0  0  0  0  0  0  0  0  0  0  0
    6.2146   19.9600   21.6869 C   0  0  0  0  0  0  0  0  0  0  0  0
    5.1929   20.1948   20.7979 C   0  0  0  0  0  0  0  0  0  0  0  0
    4.1876   19.2748   20.5807 C   0  0  0  0  0  0  0  0  0  0  0  0
    4.2262   18.0676   21.2984 C   0  0  0  0  0  0  0  0  0  0  0  0
    5.3047   21.4059   20.1887 O   0  0  0  0  0  0  0  0  0  0  0  0
    6.5122   21.9072   20.7989 C   0  0  0  0  0  0  0  0  0  0  0  0
    7.0968   20.9922   21.7491 O   0  0  0  0  0  0  0  0  0  0  0  0
    0.2159   15.6687   19.7124 C   0  0  0  0  0  0  0  0  0  0  0  0
   -0.2914   16.6648   18.7170 C   0  0  0  0  0  0  0  0  0  0  0  0
   -0.5580   16.3351   17.4028 C   0  0  0  0  0  0  0  0  0  0  0  0
   -1.0076   17.2136   16.4868 N   0  0  0  0  0  0  0  0  0  0  0  0
   -1.1814   18.4710   16.9208 C   0  0  0  0  0  0  0  0  0  0  0  0
   -0.9494   18.9134   18.1655 N   0  0  0  0  0  0  0  0  0  0  0  0
   -0.5000   17.9925   19.0394 C   0  0  0  0  0  0  0  0  0  0  0  0
  6  7  2  0  0  0
  7  8  1  0  0  0
  8  9  2  0  0  0
  9 10  1  0  0  0
 10 11  2  0  0  0
 11  1  1  0  0  0
  1  2  2  0  0  0
  2  3  1  0  0  0
  3  4  1  0  0  0
  4 15  1  0  0  0
 15 16  1  0  0  0
 16 17  2  0  0  0
 17 18  1  0  0  0
 18 19  2  0  0  0
 19 20  1  0  0  0
 20 21  2  0  0  0
  4  5  2  0  0  0
  9 12  1  0  0  0
 12 13  1  0  0  0
 13 14  1  0  0  0
 11  6  1  0  0  0
  5  1  1  0  0  0
 14  8  1  0  0  0
 21 16  1  0  0  0
M  END
> <minimizedAffinity>
-9.91940

$$$$
OCNT-2308468


 27 30  0  0  0  0  0  0  0  0999 V2000
    3.8764   15.7726   21.8795 C   0  0  0  0  0  0  0  0  0  0  0  0
    4.6725   15.0240   22.4407 O   0  0  0  0  0  0  0  0  0  0  0  0
    2.5790   15.3917   21.5373 N   0  0  0  0  0  0  0  0  0  0  0  0
    2.1262   14.0727   21.9743 C   0  0  0  0  0  0  0  0  0  0  0  0
    0.6066   13.9708   21.9717 C   0  0  0  0  0  0  0  0  0  0  0  0
    0.0120   14.2256   20.5846 C   0  0  0  0  0  0  0  0  0  0  0  0
    0.8751   15.1656   19.7242 C   0  0  0  0  0  0  0  0  0  0  0  0
    1.7298   16.1132   20.5753 C   0  0  0  0  0  0  0  0  0  0  0  0
    6.3549   21.9467   20.8181 C   0  0  0  0  0  0  0  0  0  0  0  0
    5.3306   20.9723   20.5530 N   0  0  0  0  0  0  0  0  0  0  0  0
    4.3146   21.2909   19.7291 N   0  0  0  0  0  0  0  0  0  0  0  0
    3.5092   20.2393   19.6613 N   0  0  0  0  0  0  0  0  0  0  0  0
    4.0335   19.2517   20.4495 C   0  0  0  0  0  0  0  0  0  0  0  0
    3.5645   17.9591   20.7131 C   0  0  0  0  0  0  0  0  0  0  0  0
    4.3306   17.1442   21.5589 C   0  0  0  0  0  0  0  0  0  0  0  0
    5.5031   17.6177   22.1626 C   0  0  0  0  0  0  0  0  0  0  0  0
    5.9762   18.9105   21.9084 C   0  0  0  0  0  0  0  0  0  0  0  0
    5.2131   19.6970   21.0383 C   0  0  0  0  0  0  0  0  0  0  0  0
    0.0881   15.8986   18.7400 N   0  0  0  0  0  0  0  0  0  0  0  0
   -0.8636   15.3993   17.8988 C   0  0  0  0  0  0  0  0  0  0  0  0
   -1.3368   16.4694   17.1793 C   0  0  0  0  0  0  0  0  0  0  0  0
   -0.6139   17.5965   17.6547 C   0  0  0  0  0  0  0  0  0  0  0  0
    0.2557   17.2283   18.6184 N   0  0  0  0  0  0  0  0  0  0  0  0
   -0.7609   19.0207   17.1869 C   0  0  0  0  0  0  0  0  0  0  0  0
   -0.0155   19.2853   16.0805 F   0  0  0  0  0  0  0  0  0  0  0  0
   -0.3578   19.9087   18.1393 F   0  0  0  0  0  0  0  0  0  0  0  0
   -2.0477   19.3422   16.8871 F   0  0  0  0  0  0  0  0  0  0  0  0
  9 10  1  0  0  0
 10 11  1  0  0  0
 11 12  2  0  0  0
 12 13  1  0  0  0
 13 14  2  0  0  0
 14 15  1  0  0  0
 15  1  1  0  0  0
  1  2  2  0  0  0
  1  3  1  0  0  0
  3  4  1  0  0  0
  4  5  1  0  0  0
  5  6  1  0  0  0
  6  7  1  0  0  0
  7 19  1  0  0  0
 19 20  1  0  0  0
 20 21  2  0  0  0
 21 22  1  0  0  0
 22 24  1  0  0  0
 24 25  1  0  0  0
 24 26  1  0  0  0
 24 27  1  0  0  0
 22 23  2  0  0  0
  7  8  1  0  0  0
 15 16  2  0  0  0
 16 17  1  0  0  0
 17 18  2  0  0  0
 18 10  1  0  0  0
 18 13  1  0  0  0
  8  3  1  0  0  0
 23 19  1  0  0  0
M  END
> <minimizedAffinity>
-9.91424

$$$$
OCNT-2308470


 23 25  0  0  0  0  0  0  0  0999 V2000
    4.6761   17.9341   21.3968 C   0  0  0  0  0  0  0  0  0  0  0  0
    3.3503   17.5759   21.4938 C   0  0  0  0  0  0  0  0  0  0  0  0
    3.3807   16.2213   21.6598 N   0  0  0  0  0  0  0  0  0  0  0  0
    4.6433   15.7571   21.6511 N   0  0  0  0  0  0  0  0  0  0  0  0
    5.4482   16.8023   21.5119 N   0  0  0  0  0  0  0  0  0  0  0  0
    4.8169   20.1903   20.2612 C   0  0  0  0  0  0  0  0  0  0  0  0
    5.4066   21.4635   20.2176 C   0  0  0  0  0  0  0  0  0  0  0  0
    6.4054   21.8230   21.1258 C   0  0  0  0  0  0  0  0  0  0  0  0
    6.8295   20.9164   22.0888 C   0  0  0  0  0  0  0  0  0  0  0  0
    6.2472   19.6510   22.1492 C   0  0  0  0  0  0  0  0  0  0  0  0
    5.2313   19.2718   21.2508 C   0  0  0  0  0  0  0  0  0  0  0  0
    2.6221   20.4943   19.3556 C   0  0  0  0  0  0  0  0  0  0  0  0
    3.8499   19.7781   19.3777 O   0  0  0  0  0  0  0  0  0  0  0  0
    2.2549   15.3115   21.7367 C   0  0  0  0  0  0  0  0  0  0  0  0
    1.2901   15.5366   20.6180 C   0  0  0  0  0  0  0  0  0  0  0  0
    1.0537   16.7092   20.0659 N   0  0  0  0  0  0  0  0  0  0  0  0
    0.1013   16.6031   19.0609 C   0  0  0  0  0  0  0  0  0  0  0  0
   -0.4024   15.3234   18.9011 C   0  0  0  0  0  0  0  0  0  0  0  0
    0.3248   14.2460   20.0127 S   0  0  0  0  0  0  0  0  0  0  0  0
   -0.2913   17.8411   18.2657 C   0  0  0  0  0  0  0  0  0  0  0  0
    0.6702   18.0808   17.0826 C   0  0  0  0  0  0  0  0  0  0  0  0
   -0.2516   19.0870   19.1723 C   0  0  0  0  0  0  0  0  0  0  0  0
   -1.7144   17.6769   17.6963 C   0  0  0  0  0  0  0  0  0  0  0  0
 12 13  1  0  0  0
 13  6  1  0  0  0
  6  7  2  0  0  0
  7  8  1  0  0  0
  8  9  2  0  0  0
  9 10  1  0  0  0
 10 11  2  0  0  0
 11  1  1  0  0  0
  1  2  2  0  0  0
  2  3  1  0  0  0
  3 14  1  0  0  0
 14 15  1  0  0  0
 15 16  2  0  0  0
 16 17  1  0  0  0
 17 20  1  0  0  0
 20 21  1  0  0  0
 20 22  1  0  0  0
 20 23  1  0  0  0
 17 18  2  0  0  0
 18 19  1  0  0  0
  3  4  1  0  0  0
  4  5  2  0  0  0
 11  6  1  0  0  0
  5  1  1  0  0  0
 19 15  1  0  0  0
M  END
> <minimizedAffinity>
-9.16211

$$$$
OCNT-2308474


 30 33  0  0  0  0  0  0  0  0999 V2000
    4.4350   15.4453   21.3795 O   0  0  0  0  0  0  0  0  0  0  0  0
    3.3772   15.9879   21.6684 C   0  0  0  0  0  0  0  0  0  0  0  0
    3.1923   17.3539   21.8057 N   0  0  0  0  0  0  0  0  0  0  0  0
    2.2509   17.6591   21.5949 H   0  0  0  0  0  0  0  0  0  0  0  0
    4.2087   18.3223   21.5932 C   0  0  0  0  0  0  0  0  0  0  0  0
    5.4108   18.0837   22.2866 C   0  0  0  0  0  0  0  0  0  0  0  0
    6.4668   18.9940   22.2355 C   0  0  0  0  0  0  0  0  0  0  0  0
    6.3431   20.1503   21.4786 C   0  0  0  0  0  0  0  0  0  0  0  0
    5.1779   20.3732   20.7446 C   0  0  0  0  0  0  0  0  0  0  0  0
    4.1053   19.4572   20.7581 C   0  0  0  0  0  0  0  0  0  0  0  0
    3.0250   19.7141   19.7935 C   0  0  0  0  0  0  0  0  0  0  0  0
    2.4365   18.8155   19.0195 N   0  0  0  0  0  0  0  0  0  0  0  0
    1.4534   19.4797   18.3342 C   0  0  0  0  0  0  0  0  0  0  0  0
    1.3983   20.7951   18.7198 C   0  0  0  0  0  0  0  0  0  0  0  0
    2.3838   20.9251   19.6566 N   0  0  0  0  0  0  0  0  0  0  0  0
    2.6192   21.7609   20.1698 H   0  0  0  0  0  0  0  0  0  0  0  0
    2.1793   15.2100   21.8611 C   0  0  0  0  0  0  0  0  0  0  0  0
    1.4813   14.7823   22.9735 C   0  0  0  0  0  0  0  0  0  0  0  0
    0.3728   14.0306   22.4859 C   0  0  0  0  0  0  0  0  0  0  0  0
    0.3953   14.0002   21.1438 N   0  0  0  0  0  0  0  0  0  0  0  0
    1.4849   14.7000   20.8002 N   0  0  0  0  0  0  0  0  0  0  0  0
    1.7154   14.8050   19.8156 H   0  0  0  0  0  0  0  0  0  0  0  0
   -0.6830   13.3549   23.2529 C   0  0  0  0  0  0  0  0  0  0  0  0
   -1.1152   12.0615   22.9207 C   0  0  0  0  0  0  0  0  0  0  0  0
   -2.1204   11.4325   23.6626 C   0  0  0  0  0  0  0  0  0  0  0  0
   -2.6998   12.0907   24.7393 C   0  0  0  0  0  0  0  0  0  0  0  0
   -3.6752   11.4389   25.4325 O   0  0  0  0  0  0  0  0  0  0  0  0
   -2.2927   13.3715   25.0899 C   0  0  0  0  0  0  0  0  0  0  0  0
   -1.2875   13.9986   24.3467 C   0  0  0  0  0  0  0  0  0  0  0  0
   -3.9861   12.0186   26.1475 H   0  0  0  0  0  0  0  0  0  0  0  0
  1  2  2  0  0  0
  2  3  1  0  0  0
  3  5  1  0  0  0
  5  6  2  0  0  0
  6  7  1  0  0  0
  7  8  2  0  0  0
  8  9  1  0  0  0
  9 10  2  0  0  0
 10 11  1  0  0  0
 11 12  2  0  0  0
 12 13  1  0  0  0
 13 14  2  0  0  0
 14 15  1  0  0  0
  2 17  1  0  0  0
 17 18  2  0  0  0
 18 19  1  0  0  0
 19 23  1  0  0  0
 23 24  1  0  0  0
 24 25  2  0  0  0
 25 26  1  0  0  0
 26 27  1  0  0  0
 26 28  2  0  0  0
 28 29  1  0  0  0
 19 20  2  0  0  0
 20 21  1  0  0  0
 10  5  1  0  0  0
 15 11  1  0  0  0
 21 17  1  0  0  0
 29 23  2  0  0  0
  3  4  1  0  0  0
 15 16  1  0  0  0
 27 30  1  0  0  0
 21 22  1  0  0  0
M  END
> <minimizedAffinity>
-4.71035

$$$$
OCNT-2308475


 23 26  0  0  0  0  0  0  0  0999 V2000
    1.4337   18.9757   20.1410 N   0  0  0  0  0  0  0  0  0  0  0  0
    0.9596   19.8302   20.4347 H   0  0  0  0  0  0  0  0  0  0  0  0
    0.6568   18.2202   19.2021 C   0  0  0  0  0  0  0  0  0  0  0  0
    0.0312   18.8918   18.1446 C   0  0  0  0  0  0  0  0  0  0  0  0
   -0.7697   18.2008   17.2376 C   0  0  0  0  0  0  0  0  0  0  0  0
   -0.9737   16.8238   17.3608 C   0  0  0  0  0  0  0  0  0  0  0  0
   -0.3484   16.1660   18.4271 C   0  0  0  0  0  0  0  0  0  0  0  0
    0.4580   16.8295   19.3554 C   0  0  0  0  0  0  0  0  0  0  0  0
    0.8987   15.8488   20.2917 C   0  0  0  0  0  0  0  0  0  0  0  0
    0.3720   14.6351   19.9141 C   0  0  0  0  0  0  0  0  0  0  0  0
   -0.3788   14.8372   18.7877 N   0  0  0  0  0  0  0  0  0  0  0  0
   -0.8915   14.1199   18.2932 H   0  0  0  0  0  0  0  0  0  0  0  0
    3.3004   18.6692   18.4147 O   0  0  0  0  0  0  0  0  0  0  0  0
    2.9887   19.4259   19.6081 S   0  0  0  0  0  0  0  0  0  0  0  0
    3.0079   20.8740   19.5750 O   0  0  0  0  0  0  0  0  0  0  0  0
    4.1700   18.9335   20.8447 C   0  0  0  0  0  0  0  0  0  0  0  0
    5.1814   19.5892   21.5196 C   0  0  0  0  0  0  0  0  0  0  0  0
    5.9226   18.7401   22.3861 C   0  0  0  0  0  0  0  0  0  0  0  0
    5.4376   17.4521   22.3701 C   0  0  0  0  0  0  0  0  0  0  0  0
    4.1177   17.2763   21.2973 S   0  0  0  0  0  0  0  0  0  0  0  0
    5.5204   21.0941   21.3179 C   0  0  0  0  0  0  0  0  0  0  0  0
    6.7710   21.5014   20.5809 C   0  0  0  0  0  0  0  0  0  0  0  0
    6.6931   21.6728   22.0674 C   0  0  0  0  0  0  0  0  0  0  0  0
 13 14  2  0  0  0
 14 15  2  0  0  0
 14  1  1  0  0  0
  1  3  1  0  0  0
  3  4  1  0  0  0
  4  5  2  0  0  0
  5  6  1  0  0  0
  6  7  2  0  0  0
  7  8  1  0  0  0
  8  9  1  0  0  0
  9 10  2  0  0  0
 10 11  1  0  0  0
 14 16  1  0  0  0
 16 17  2  0  0  0
 17 21  1  0  0  0
 21 22  1  0  0  0
 22 23  1  0  0  0
 17 18  1  0  0  0
 18 19  2  0  0  0
 19 20  1  0  0  0
  8  3  2  0  0  0
 20 16  1  0  0  0
 11  7  1  0  0  0
 23 21  1  0  0  0
  1  2  1  0  0  0
 11 12  1  0  0  0
M  END
> <minimizedAffinity>
-9.62459

$$$$
OCNT-2308476


 25 27  0  0  0  0  0  0  0  0999 V2000
   -0.4759   17.2406   17.3513 C   0  0  0  0  0  0  0  0  0  0  0  0
   -0.5809   15.7148   17.1777 C   0  0  0  0  0  0  0  0  0  0  0  0
   -0.6782   14.9609   18.4985 C   0  0  0  0  0  0  0  0  0  0  0  0
    0.0401   15.6291   19.6674 C   0  0  0  0  0  0  0  0  0  0  0  0
    1.0830   16.5713   19.2792 N   0  0  0  0  0  0  0  0  0  0  0  0
    2.0928   16.7959   20.2349 C   0  0  0  0  0  0  0  0  0  0  0  0
    2.1144   16.1770   21.2963 O   0  0  0  0  0  0  0  0  0  0  0  0
    3.0229   17.7444   19.8654 N   0  0  0  0  0  0  0  0  0  0  0  0
    0.7815   17.5404   18.2132 C   0  0  0  0  0  0  0  0  0  0  0  0
    3.0597   17.9735   18.8870 H   0  0  0  0  0  0  0  0  0  0  0  0
    4.0667   18.2857   20.6487 C   0  0  0  0  0  0  0  0  0  0  0  0
    4.8155   17.5377   21.5715 C   0  0  0  0  0  0  0  0  0  0  0  0
    5.8198   18.1380   22.3366 C   0  0  0  0  0  0  0  0  0  0  0  0
    6.0647   19.4869   22.1542 C   0  0  0  0  0  0  0  0  0  0  0  0
    7.0457   20.3572   22.8619 C   0  0  0  0  0  0  0  0  0  0  0  0
    7.0326   21.5866   21.9382 C   0  0  0  0  0  0  0  0  0  0  0  0
    5.7267   21.6086   21.2498 N   0  0  0  0  0  0  0  0  0  0  0  0
    5.6367   22.3385   19.9969 C   0  0  0  0  0  0  0  0  0  0  0  0
    5.3345   20.2538   21.2436 C   0  0  0  0  0  0  0  0  0  0  0  0
    4.3262   19.6596   20.4988 C   0  0  0  0  0  0  0  0  0  0  0  0
   -0.2587   17.8679   15.9504 C   0  0  0  0  0  0  0  0  0  0  0  0
    0.1379   19.2299   16.0431 O   0  0  0  0  0  0  0  0  0  0  0  0
   -0.6655   19.7648   16.1686 H   0  0  0  0  0  0  0  0  0  0  0  0
   -2.6841   18.6096   17.1064 C   0  0  0  0  0  0  0  0  0  0  0  0
   -1.7321   17.8628   18.0341 C   0  0  0  0  0  0  0  0  0  0  0  0
 24 25  1  0  0  0
 25  1  1  0  0  0
  1 21  1  0  0  0
 21 22  1  0  0  0
  1  2  1  0  0  0
  2  3  1  0  0  0
  3  4  1  0  0  0
  4  5  1  0  0  0
  5  6  1  0  0  0
  6  7  2  0  0  0
  6  8  1  0  0  0
  8 11  1  0  0  0
 11 12  1  0  0  0
 12 13  2  0  0  0
 13 14  1  0  0  0
 14 15  1  0  0  0
 15 16  1  0  0  0
 16 17  1  0  0  0
 17 18  1  0  0  0
 17 19  1  0  0  0
 19 20  1  0  0  0
  5  9  1  0  0  0
  9  1  1  0  0  0
 20 11  2  0  0  0
 19 14  2  0  0  0
 22 23  1  0  0  0
  8 10  1  0  0  0
M  END
> <minimizedAffinity>
-7.57695

$$$$
OCNT-2308483


 22 25  0  0  0  0  0  0  0  0999 V2000
   -1.5867   15.7148   17.3956 C   0  0  0  0  0  0  0  0  0  0  0  0
   -0.4489   16.4254   18.0781 C   0  0  0  0  0  0  0  0  0  0  0  0
   -0.0899   17.7026   17.6374 C   0  0  0  0  0  0  0  0  0  0  0  0
    0.9606   18.3852   18.2411 C   0  0  0  0  0  0  0  0  0  0  0  0
    1.6735   17.8005   19.2957 C   0  0  0  0  0  0  0  0  0  0  0  0
    2.7452   18.4804   19.8953 C   0  0  0  0  0  0  0  0  0  0  0  0
    3.4573   17.8902   20.9359 C   0  0  0  0  0  0  0  0  0  0  0  0
    3.0514   16.6281   21.3352 C   0  0  0  0  0  0  0  0  0  0  0  0
    2.0223   15.9435   20.7786 N   0  0  0  0  0  0  0  0  0  0  0  0
    1.3295   16.5144   19.7700 C   0  0  0  0  0  0  0  0  0  0  0  0
    0.2496   15.8447   19.1657 C   0  0  0  0  0  0  0  0  0  0  0  0
   -0.1190   14.4621   19.6522 C   0  0  0  0  0  0  0  0  0  0  0  0
    4.5762   18.5595   21.5720 C   0  0  0  0  0  0  0  0  0  0  0  0
    5.2313   18.0454   22.6741 C   0  0  0  0  0  0  0  0  0  0  0  0
    6.2470   18.9030   23.0059 N   0  0  0  0  0  0  0  0  0  0  0  0
    6.2639   19.9739   22.1440 C   0  0  0  0  0  0  0  0  0  0  0  0
    7.1038   21.0793   22.0976 C   0  0  0  0  0  0  0  0  0  0  0  0
    6.9093   22.0156   21.1424 N   0  0  0  0  0  0  0  0  0  0  0  0
    5.8992   21.8512   20.2610 C   0  0  0  0  0  0  0  0  0  0  0  0
    5.0263   20.7733   20.2492 C   0  0  0  0  0  0  0  0  0  0  0  0
    5.2239   19.7901   21.2318 C   0  0  0  0  0  0  0  0  0  0  0  0
    6.8941   18.7700   23.7714 H   0  0  0  0  0  0  0  0  0  0  0  0
  1  2  1  0  0  0
  2  3  2  0  0  0
  3  4  1  0  0  0
  4  5  2  0  0  0
  5  6  1  0  0  0
  6  7  2  0  0  0
  7 13  1  0  0  0
 13 14  2  0  0  0
 14 15  1  0  0  0
 15 16  1  0  0  0
 16 17  2  0  0  0
 17 18  1  0  0  0
 18 19  2  0  0  0
 19 20  1  0  0  0
 20 21  2  0  0  0
  7  8  1  0  0  0
  8  9  2  0  0  0
  9 10  1  0  0  0
 10 11  2  0  0  0
 11 12  1  0  0  0
 11  2  1  0  0  0
 10  5  1  0  0  0
 21 13  1  0  0  0
 21 16  1  0  0  0
 15 22  1  0  0  0
M  END
> <minimizedAffinity>
-10.57512

$$$$
OCNT-2308499


 21 23  0  0  0  0  0  0  0  0999 V2000
    4.7954   17.8502   21.9825 C   0  0  0  0  0  0  0  0  0  0  0  0
    4.2039   18.0630   20.5772 C   0  0  0  0  0  0  0  0  0  0  0  0
    3.2201   17.0613   20.8987 N   0  0  0  0  0  0  0  0  0  0  0  0
    3.4187   17.2429   22.3127 C   0  0  0  0  0  0  0  0  0  0  0  0
    2.0159   16.8005   20.1940 C   0  0  0  0  0  0  0  0  0  0  0  0
    1.5333   17.7838   19.3027 C   0  0  0  0  0  0  0  0  0  0  0  0
    0.3593   17.5938   18.5695 C   0  0  0  0  0  0  0  0  0  0  0  0
   -0.2465   18.9479   17.3988 Br  0  0  0  0  0  0  0  0  0  0  0  0
   -0.3624   16.4180   18.6936 C   0  0  0  0  0  0  0  0  0  0  0  0
    0.1085   15.4323   19.5517 C   0  0  0  0  0  0  0  0  0  0  0  0
   -0.5965   14.2947   19.6495 F   0  0  0  0  0  0  0  0  0  0  0  0
    1.2838   15.5989   20.2970 C   0  0  0  0  0  0  0  0  0  0  0  0
    1.6878   14.5042   21.1254 C   0  0  0  0  0  0  0  0  0  0  0  0
    2.0194   13.6123   21.7916 N   0  0  0  0  0  0  0  0  0  0  0  0
    5.1487   19.0260   22.7403 O   0  0  0  0  0  0  0  0  0  0  0  0
    8.1163   21.9832   20.3437 C   0  0  0  0  0  0  0  0  0  0  0  0
    6.9425   21.3776   20.9241 N   0  0  0  0  0  0  0  0  0  0  0  0
    6.8927   20.2409   21.6765 C   0  0  0  0  0  0  0  0  0  0  0  0
    5.5706   20.0640   21.9954 C   0  0  0  0  0  0  0  0  0  0  0  0
    4.8975   21.1398   21.3848 C   0  0  0  0  0  0  0  0  0  0  0  0
    5.7375   21.9532   20.7363 N   0  0  0  0  0  0  0  0  0  0  0  0
 16 17  1  0  0  0
 17 18  1  0  0  0
 18 19  2  0  0  0
 19 15  1  0  0  0
 15  1  1  0  0  0
  1  2  1  0  0  0
  2  3  1  0  0  0
  3  5  1  0  0  0
  5  6  1  0  0  0
  6  7  2  0  0  0
  7  8  1  0  0  0
  7  9  1  0  0  0
  9 10  2  0  0  0
 10 11  1  0  0  0
 10 12  1  0  0  0
 12 13  1  0  0  0
 13 14  3  0  0  0
  3  4  1  0  0  0
 19 20  1  0  0  0
 20 21  2  0  0  0
 21 17  1  0  0  0
  4  1  1  0  0  0
 12  5  2  0  0  0
M  END
> <minimizedAffinity>
-8.55258

$$$$
OCNT-2308506


 25 29  0  0  0  0  0  0  0  0999 V2000
    0.7394   18.5450   18.8691 C   0  0  0  0  0  0  0  0  0  0  0  0
    1.7774   18.2269   19.6083 N   0  0  0  0  0  0  0  0  0  0  0  0
    2.5255   19.3878   19.6002 C   0  0  0  0  0  0  0  0  0  0  0  0
    1.9767   20.3743   18.8718 N   0  0  0  0  0  0  0  0  0  0  0  0
    0.7975   19.8201   18.3878 O   0  0  0  0  0  0  0  0  0  0  0  0
   -0.0852   13.6119   19.1044 O   0  0  0  0  0  0  0  0  0  0  0  0
   -0.3479   14.7880   18.8885 C   0  0  0  0  0  0  0  0  0  0  0  0
   -0.6676   15.3361   17.5220 C   0  0  0  0  0  0  0  0  0  0  0  0
   -0.0547   16.7226   17.3530 C   0  0  0  0  0  0  0  0  0  0  0  0
   -0.5187   17.2712   16.0983 O   0  0  0  0  0  0  0  0  0  0  0  0
   -1.0254   18.5876   16.3393 C   0  0  0  0  0  0  0  0  0  0  0  0
   -1.5034   18.5729   17.7739 C   0  0  0  0  0  0  0  0  0  0  0  0
   -0.4462   17.7147   18.4703 C   0  0  0  0  0  0  0  0  0  0  0  0
   -1.0128   17.0066   19.7120 C   0  0  0  0  0  0  0  0  0  0  0  0
   -0.4175   15.7025   19.9070 N   0  0  0  0  0  0  0  0  0  0  0  0
   -0.3156   15.3118   20.8387 H   0  0  0  0  0  0  0  0  0  0  0  0
    3.7924   19.5053   20.3162 C   0  0  0  0  0  0  0  0  0  0  0  0
    4.1908   18.4904   21.2149 C   0  0  0  0  0  0  0  0  0  0  0  0
    5.4014   18.5699   21.9117 C   0  0  0  0  0  0  0  0  0  0  0  0
    6.2020   19.6793   21.7105 C   0  0  0  0  0  0  0  0  0  0  0  0
    7.5437   19.9702   22.3067 C   0  0  0  0  0  0  0  0  0  0  0  0
    7.6754   21.4739   22.0247 C   0  0  0  0  0  0  0  0  0  0  0  0
    6.8722   21.7543   20.7463 C   0  0  0  0  0  0  0  0  0  0  0  0
    5.8211   20.6915   20.8252 C   0  0  0  0  0  0  0  0  0  0  0  0
    4.6293   20.6166   20.1200 C   0  0  0  0  0  0  0  0  0  0  0  0
  6  7  2  0  0  0
  7  8  1  0  0  0
  8  9  1  0  0  0
  9 10  1  0  0  0
 10 11  1  0  0  0
 11 12  1  0  0  0
 12 13  1  0  0  0
 13  1  1  0  0  0
  1  2  2  0  0  0
  2  3  1  0  0  0
  3 17  1  0  0  0
 17 18  1  0  0  0
 18 19  2  0  0  0
 19 20  1  0  0  0
 20 21  1  0  0  0
 21 22  1  0  0  0
 22 23  1  0  0  0
 23 24  1  0  0  0
 24 25  1  0  0  0
  3  4  2  0  0  0
  4  5  1  0  0  0
 13 14  1  0  0  0
 14 15  1  0  0  0
 15  7  1  0  0  0
 13  9  1  0  0  0
  5  1  1  0  0  0
 25 17  2  0  0  0
 24 20  2  0  0  0
 15 16  1  0  0  0
M  END
> <minimizedAffinity>
-8.40166

$$$$
OCNT-2308508


 31 34  0  0  0  0  0  0  0  0999 V2000
    3.5860   17.4772   23.3768 O   0  0  0  0  0  0  0  0  0  0  0  0
    3.8023   16.9743   22.2788 C   0  0  0  0  0  0  0  0  0  0  0  0
    4.8727   17.2612   21.4582 N   0  0  0  0  0  0  0  0  0  0  0  0
    4.9678   16.8239   20.5434 H   0  0  0  0  0  0  0  0  0  0  0  0
    5.8956   18.1525   21.7374 C   0  0  0  0  0  0  0  0  0  0  0  0
    7.0871   17.9189   22.3747 C   0  0  0  0  0  0  0  0  0  0  0  0
    7.7386   19.1111   22.4045 N   0  0  0  0  0  0  0  0  0  0  0  0
    7.0597   20.1191   21.8306 N   0  0  0  0  0  0  0  0  0  0  0  0
    5.9132   19.5478   21.4065 C   0  0  0  0  0  0  0  0  0  0  0  0
    8.6497   19.3099   22.8036 H   0  0  0  0  0  0  0  0  0  0  0  0
    4.8618   20.3018   20.7016 C   0  0  0  0  0  0  0  0  0  0  0  0
    4.9314   21.6878   20.5837 C   0  0  0  0  0  0  0  0  0  0  0  0
    3.9199   22.3578   19.8994 C   0  0  0  0  0  0  0  0  0  0  0  0
    2.8681   21.6297   19.3570 C   0  0  0  0  0  0  0  0  0  0  0  0
    2.8659   20.2543   19.5251 C   0  0  0  0  0  0  0  0  0  0  0  0
    3.8325   19.5693   20.1768 N   0  0  0  0  0  0  0  0  0  0  0  0
    2.8318   15.9680   21.7482 C   0  0  0  0  0  0  0  0  0  0  0  0
    2.6969   14.6873   22.3017 C   0  0  0  0  0  0  0  0  0  0  0  0
    1.7816   13.7808   21.7595 C   0  0  0  0  0  0  0  0  0  0  0  0
    0.9843   14.1454   20.6710 C   0  0  0  0  0  0  0  0  0  0  0  0
    1.0893   15.4303   20.1226 C   0  0  0  0  0  0  0  0  0  0  0  0
    2.0162   16.3378   20.6666 C   0  0  0  0  0  0  0  0  0  0  0  0
    0.2662   15.8368   19.0324 N   0  0  0  0  0  0  0  0  0  0  0  0
   -0.5338   15.0505   18.2318 C   0  0  0  0  0  0  0  0  0  0  0  0
   -1.1676   15.8860   17.3439 C   0  0  0  0  0  0  0  0  0  0  0  0
   -0.7045   17.1852   17.6591 C   0  0  0  0  0  0  0  0  0  0  0  0
    0.1827   17.1418   18.6715 N   0  0  0  0  0  0  0  0  0  0  0  0
   -1.1096   18.4679   16.9812 C   0  0  0  0  0  0  0  0  0  0  0  0
   -2.3947   18.8246   17.2376 F   0  0  0  0  0  0  0  0  0  0  0  0
   -1.0027   18.3705   15.6250 F   0  0  0  0  0  0  0  0  0  0  0  0
   -0.3228   19.5134   17.3489 F   0  0  0  0  0  0  0  0  0  0  0  0
  1  2  2  0  0  0
  2  3  1  0  0  0
  3  5  1  0  0  0
  5  6  2  0  0  0
  6  7  1  0  0  0
  7  8  1  0  0  0
  8  9  2  0  0  0
  9 11  1  0  0  0
 11 12  2  0  0  0
 12 13  1  0  0  0
 13 14  2  0  0  0
 14 15  1  0  0  0
 15 16  2  0  0  0
  2 17  1  0  0  0
 17 18  1  0  0  0
 18 19  2  0  0  0
 19 20  1  0  0  0
 20 21  2  0  0  0
 21 23  1  0  0  0
 23 24  1  0  0  0
 24 25  2  0  0  0
 25 26  1  0  0  0
 26 28  1  0  0  0
 28 29  1  0  0  0
 28 30  1  0  0  0
 28 31  1  0  0  0
 26 27  2  0  0  0
 21 22  1  0  0  0
  9  5  1  0  0  0
 16 11  1  0  0  0
 22 17  2  0  0  0
 27 23  1  0  0  0
  3  4  1  0  0  0
  7 10  1  0  0  0
M  END
> <minimizedAffinity>
-7.16476

$$$$
OCNT-2308510


 26 28  0  0  0  0  0  0  0  0999 V2000
    3.3751   18.6254   20.1136 C   0  0  0  0  0  0  0  0  0  0  0  0
    3.1243   19.1250   19.0232 O   0  0  0  0  0  0  0  0  0  0  0  0
    2.6749   17.5930   20.7103 N   0  0  0  0  0  0  0  0  0  0  0  0
    2.8954   17.4089   21.6802 H   0  0  0  0  0  0  0  0  0  0  0  0
    5.9371   20.4691   21.8939 N   0  0  0  0  0  0  0  0  0  0  0  0
    6.2338   19.2559   22.3871 N   0  0  0  0  0  0  0  0  0  0  0  0
    5.3766   18.4295   21.7794 C   0  0  0  0  0  0  0  0  0  0  0  0
    5.4935   16.9669   22.0131 C   0  0  0  0  0  0  0  0  0  0  0  0
    4.4642   19.1349   20.9431 C   0  0  0  0  0  0  0  0  0  0  0  0
    4.8650   20.4616   21.0391 C   0  0  0  0  0  0  0  0  0  0  0  0
    4.3280   21.6873   20.3916 C   0  0  0  0  0  0  0  0  0  0  0  0
    6.7567   21.6009   22.2922 C   0  0  0  0  0  0  0  0  0  0  0  0
    7.8969   22.0225   20.0912 C   0  0  0  0  0  0  0  0  0  0  0  0
    8.0883   21.6354   21.5480 C   0  0  0  0  0  0  0  0  0  0  0  0
    1.6332   16.8238   20.1529 C   0  0  0  0  0  0  0  0  0  0  0  0
    1.4410   15.4675   20.4134 C   0  0  0  0  0  0  0  0  0  0  0  0
    0.3599   14.7855   19.8499 C   0  0  0  0  0  0  0  0  0  0  0  0
   -0.5347   15.4516   19.0122 C   0  0  0  0  0  0  0  0  0  0  0  0
   -0.3494   16.8066   18.7168 C   0  0  0  0  0  0  0  0  0  0  0  0
    0.7295   17.4849   19.3090 C   0  0  0  0  0  0  0  0  0  0  0  0
   -1.2624   17.5460   17.8490 C   0  0  0  0  0  0  0  0  0  0  0  0
   -2.5546   17.3066   17.7010 N   0  0  0  0  0  0  0  0  0  0  0  0
   -3.0287   18.2259   16.8003 N   0  0  0  0  0  0  0  0  0  0  0  0
   -2.0665   19.0452   16.4104 N   0  0  0  0  0  0  0  0  0  0  0  0
   -0.9712   18.6431   17.0756 N   0  0  0  0  0  0  0  0  0  0  0  0
    0.2442   19.4020   16.9751 C   0  0  0  0  0  0  0  0  0  0  0  0
 13 14  1  0  0  0
 14 12  1  0  0  0
 12  5  1  0  0  0
  5  6  1  0  0  0
  6  7  2  0  0  0
  7  8  1  0  0  0
  7  9  1  0  0  0
  9  1  1  0  0  0
  1  2  2  0  0  0
  1  3  1  0  0  0
  3 15  1  0  0  0
 15 16  2  0  0  0
 16 17  1  0  0  0
 17 18  2  0  0  0
 18 19  1  0  0  0
 19 21  1  0  0  0
 21 22  2  0  0  0
 22 23  1  0  0  0
 23 24  2  0  0  0
 24 25  1  0  0  0
 25 26  1  0  0  0
 19 20  2  0  0  0
  9 10  2  0  0  0
 10 11  1  0  0  0
 10  5  1  0  0  0
 20 15  1  0  0  0
 25 21  1  0  0  0
  3  4  1  0  0  0
M  END
> <minimizedAffinity>
-7.78500

$$$$
OCNT-2308519


 23 27  0  0  0  0  0  0  0  0999 V2000
    3.6099   22.2189   19.4880 O   0  0  0  0  0  0  0  0  0  0  0  0
    3.9413   21.1471   19.9893 C   0  0  0  0  0  0  0  0  0  0  0  0
    5.1964   20.9824   20.6524 C   0  0  0  0  0  0  0  0  0  0  0  0
    6.2372   21.8579   20.8630 C   0  0  0  0  0  0  0  0  0  0  0  0
    7.2493   21.2512   21.5617 N   0  0  0  0  0  0  0  0  0  0  0  0
    6.8262   20.0225   21.7737 C   0  0  0  0  0  0  0  0  0  0  0  0
    5.5818   19.8115   21.2390 N   0  0  0  0  0  0  0  0  0  0  0  0
    4.7696   18.6677   21.2334 C   0  0  0  0  0  0  0  0  0  0  0  0
    5.1907   17.4814   21.8500 C   0  0  0  0  0  0  0  0  0  0  0  0
    4.3601   16.3651   21.8232 C   0  0  0  0  0  0  0  0  0  0  0  0
    3.1261   16.4360   21.1851 C   0  0  0  0  0  0  0  0  0  0  0  0
    2.7126   17.6241   20.5705 C   0  0  0  0  0  0  0  0  0  0  0  0
    3.5216   18.7681   20.5834 C   0  0  0  0  0  0  0  0  0  0  0  0
    3.1225   20.0031   19.9607 N   0  0  0  0  0  0  0  0  0  0  0  0
    1.8150   20.1522   19.3246 C   0  0  0  0  0  0  0  0  0  0  0  0
    1.2681   18.8159   18.9065 C   0  0  0  0  0  0  0  0  0  0  0  0
   -0.1857   18.4863   19.1757 C   0  0  0  0  0  0  0  0  0  0  0  0
   -0.6064   17.1791   19.7798 C   0  0  0  0  0  0  0  0  0  0  0  0
   -0.0167   15.9119   19.1747 C   0  0  0  0  0  0  0  0  0  0  0  0
   -0.6265   15.5091   17.8319 C   0  0  0  0  0  0  0  0  0  0  0  0
   -0.7292   16.6099   16.7761 C   0  0  0  0  0  0  0  0  0  0  0  0
    0.4626   17.5589   16.7677 C   0  0  0  0  0  0  0  0  0  0  0  0
    0.2939   18.6770   17.7513 C   0  0  0  0  0  0  0  0  0  0  0  0
  1  2  2  0  0  0
  2  3  1  0  0  0
  3  4  2  0  0  0
  4  5  1  0  0  0
  5  6  2  0  0  0
  6  7  1  0  0  0
  7  8  1  0  0  0
  8  9  2  0  0  0
  9 10  1  0  0  0
 10 11  2  0  0  0
 11 12  1  0  0  0
 12 13  2  0  0  0
 13 14  1  0  0  0
 14 15  1  0  0  0
 15 16  1  0  0  0
 16 17  1  0  0  0
 17 18  1  0  0  0
 18 19  1  0  0  0
 19 20  1  0  0  0
 20 21  1  0  0  0
 21 22  1  0  0  0
 22 23  1  0  0  0
 14  2  1  0  0  0
 23 16  1  0  0  0
  7  3  1  0  0  0
 13  8  1  0  0  0
 23 17  1  0  0  0
M  END
> <minimizedAffinity>
-10.46067

$$$$
OCNT-2308520


 27 30  0  0  0  0  0  0  0  0999 V2000
    4.5293   16.5887   20.4744 O   0  0  0  0  0  0  0  0  0  0  0  0
    4.4297   16.7377   21.6842 C   0  0  0  0  0  0  0  0  0  0  0  0
    3.5837   16.0273   22.4909 N   0  0  0  0  0  0  0  0  0  0  0  0
    5.1613   17.6432   22.4026 N   0  0  0  0  0  0  0  0  0  0  0  0
    3.3116   16.4919   23.3447 H   0  0  0  0  0  0  0  0  0  0  0  0
    5.3610   17.3814   23.3577 H   0  0  0  0  0  0  0  0  0  0  0  0
    6.1837   18.4262   21.7335 C   0  0  0  0  0  0  0  0  0  0  0  0
    7.1378   19.1507   22.7051 C   0  0  0  0  0  0  0  0  0  0  0  0
    6.6350   20.4936   22.9408 O   0  0  0  0  0  0  0  0  0  0  0  0
    5.8659   20.7453   21.8340 C   0  0  0  0  0  0  0  0  0  0  0  0
    5.3793   21.9904   21.4945 C   0  0  0  0  0  0  0  0  0  0  0  0
    4.5955   22.0930   20.3431 C   0  0  0  0  0  0  0  0  0  0  0  0
    4.3095   20.9550   19.5697 C   0  0  0  0  0  0  0  0  0  0  0  0
    4.8011   19.7004   19.9399 C   0  0  0  0  0  0  0  0  0  0  0  0
    5.5843   19.6157   21.0791 C   0  0  0  0  0  0  0  0  0  0  0  0
    2.6489   15.0725   21.9370 C   0  0  0  0  0  0  0  0  0  0  0  0
    1.7653   15.7015   20.8986 C   0  0  0  0  0  0  0  0  0  0  0  0
    0.7922   14.9622   20.2228 C   0  0  0  0  0  0  0  0  0  0  0  0
   -0.0010   15.5714   19.2500 C   0  0  0  0  0  0  0  0  0  0  0  0
    0.2044   16.9191   18.9720 C   0  0  0  0  0  0  0  0  0  0  0  0
    1.1478   17.6583   19.6126 N   0  0  0  0  0  0  0  0  0  0  0  0
    1.8989   17.0388   20.5514 C   0  0  0  0  0  0  0  0  0  0  0  0
   -0.5799   17.5795   17.9869 N   0  0  0  0  0  0  0  0  0  0  0  0
   -1.9452   17.7614   17.9406 C   0  0  0  0  0  0  0  0  0  0  0  0
   -2.1912   18.4595   16.7807 C   0  0  0  0  0  0  0  0  0  0  0  0
   -1.0296   18.7153   16.1089 N   0  0  0  0  0  0  0  0  0  0  0  0
   -0.0837   18.1804   16.8509 C   0  0  0  0  0  0  0  0  0  0  0  0
  1  2  2  0  0  0
  2  3  1  0  0  0
  3 16  1  0  0  0
 16 17  1  0  0  0
 17 18  2  0  0  0
 18 19  1  0  0  0
 19 20  2  0  0  0
 20 23  1  0  0  0
 23 24  1  0  0  0
 24 25  2  0  0  0
 25 26  1  0  0  0
 26 27  2  0  0  0
 20 21  1  0  0  0
 21 22  2  0  0  0
  2  4  1  0  0  0
  4  7  1  0  0  0
  7  8  1  0  0  0
  8  9  1  0  0  0
  9 10  1  0  0  0
 10 11  2  0  0  0
 11 12  1  0  0  0
 12 13  2  0  0  0
 13 14  1  0  0  0
 14 15  2  0  0  0
 22 17  1  0  0  0
 15  7  1  0  0  0
 27 23  1  0  0  0
 15 10  1  0  0  0
  3  5  1  0  0  0
  4  6  1  0  0  0
M  END
> <minimizedAffinity>
-8.35393

$$$$
OCNT-2308529


 26 28  0  0  0  0  0  0  0  0999 V2000
    0.7310   15.1710   20.3117 C   0  0  0  0  0  0  0  0  0  0  0  0
    0.9895   16.3660   19.6657 C   0  0  0  0  0  0  0  0  0  0  0  0
    1.8725   17.4668   19.8875 C   0  0  0  0  0  0  0  0  0  0  0  0
    1.8814   18.5296   19.0493 C   0  0  0  0  0  0  0  0  0  0  0  0
    0.9856   18.5479   17.8974 C   0  0  0  0  0  0  0  0  0  0  0  0
    0.1554   17.5126   17.6845 C   0  0  0  0  0  0  0  0  0  0  0  0
    0.1474   16.4260   18.5544 N   0  0  0  0  0  0  0  0  0  0  0  0
   -0.6284   15.3162   18.4703 N   0  0  0  0  0  0  0  0  0  0  0  0
   -0.2729   14.5763   19.5203 C   0  0  0  0  0  0  0  0  0  0  0  0
    2.7488   19.5645   19.3151 N   0  0  0  0  0  0  0  0  0  0  0  0
    2.4928   20.8829   19.6564 C   0  0  0  0  0  0  0  0  0  0  0  0
    1.3810   21.3973   19.7636 O   0  0  0  0  0  0  0  0  0  0  0  0
    3.7431   19.3195   19.3463 H   0  0  0  0  0  0  0  0  0  0  0  0
    3.7488   21.7293   19.8253 C   0  0  0  0  0  0  0  0  0  0  0  0
    4.8283   21.0307   20.5829 C   0  0  0  0  0  0  0  0  0  0  0  0
    4.6096   19.8093   21.0983 N   0  0  0  0  0  0  0  0  0  0  0  0
    5.7762   19.4958   21.6976 N   0  0  0  0  0  0  0  0  0  0  0  0
    6.7188   20.4750   21.5877 C   0  0  0  0  0  0  0  0  0  0  0  0
    6.1354   21.4881   20.8655 C   0  0  0  0  0  0  0  0  0  0  0  0
    5.9165   18.2277   22.3879 C   0  0  0  0  0  0  0  0  0  0  0  0
    5.1001   17.1269   21.7359 C   0  0  0  0  0  0  0  0  0  0  0  0
    1.3509   14.6610   21.5172 C   0  0  0  0  0  0  0  0  0  0  0  0
    2.5259   14.8472   21.8105 O   0  0  0  0  0  0  0  0  0  0  0  0
    0.4694   13.9556   22.2851 O   0  0  0  0  0  0  0  0  0  0  0  0
   -1.0678   14.1390   24.1481 C   0  0  0  0  0  0  0  0  0  0  0  0
    0.3445   14.3814   23.6495 C   0  0  0  0  0  0  0  0  0  0  0  0
 25 26  1  0  0  0
 26 24  1  0  0  0
 24 22  1  0  0  0
 22 23  2  0  0  0
 22  1  1  0  0  0
  1  2  2  0  0  0
  2  3  1  0  0  0
  3  4  2  0  0  0
  4 10  1  0  0  0
 10 11  1  0  0  0
 11 12  2  0  0  0
 11 14  1  0  0  0
 14 15  1  0  0  0
 15 16  2  0  0  0
 16 17  1  0  0  0
 17 20  1  0  0  0
 20 21  1  0  0  0
 17 18  1  0  0  0
 18 19  2  0  0  0
  4  5  1  0  0  0
  5  6  2  0  0  0
  6  7  1  0  0  0
  7  8  1  0  0  0
  8  9  2  0  0  0
  9  1  1  0  0  0
  7  2  1  0  0  0
 19 15  1  0  0  0
 10 13  1  0  0  0
M  END
> <minimizedAffinity>
-8.86673

$$$$
OCNT-2308546


 23 26  0  0  0  0  0  0  0  0999 V2000
    3.8729   16.8372   21.3775 C   0  0  0  0  0  0  0  0  0  0  0  0
    3.9007   15.6772   21.7604 O   0  0  0  0  0  0  0  0  0  0  0  0
    2.9153   17.4605   20.6110 N   0  0  0  0  0  0  0  0  0  0  0  0
    3.0516   18.4332   20.3733 H   0  0  0  0  0  0  0  0  0  0  0  0
    1.7585   16.8747   20.1273 C   0  0  0  0  0  0  0  0  0  0  0  0
    1.2284   15.6558   20.4785 C   0  0  0  0  0  0  0  0  0  0  0  0
    0.0789   15.4646   19.7602 N   0  0  0  0  0  0  0  0  0  0  0  0
   -0.1561   16.5448   18.9414 C   0  0  0  0  0  0  0  0  0  0  0  0
   -1.2016   16.7834   18.0415 C   0  0  0  0  0  0  0  0  0  0  0  0
   -1.1828   17.9868   17.3310 C   0  0  0  0  0  0  0  0  0  0  0  0
   -0.1588   18.9124   17.5149 C   0  0  0  0  0  0  0  0  0  0  0  0
    0.8797   18.6583   18.4190 C   0  0  0  0  0  0  0  0  0  0  0  0
    0.8860   17.4506   19.1499 C   0  0  0  0  0  0  0  0  0  0  0  0
   -0.5137   14.6483   19.8204 H   0  0  0  0  0  0  0  0  0  0  0  0
    4.7017   19.1931   22.0816 C   0  0  0  0  0  0  0  0  0  0  0  0
    5.1476   18.2408   23.1541 C   0  0  0  0  0  0  0  0  0  0  0  0
    4.9939   17.7481   21.7356 C   0  0  0  0  0  0  0  0  0  0  0  0
    4.1978   21.5203   19.9852 C   0  0  0  0  0  0  0  0  0  0  0  0
    5.4312   21.2823   20.6890 N   0  0  0  0  0  0  0  0  0  0  0  0
    6.5807   22.0076   20.5573 C   0  0  0  0  0  0  0  0  0  0  0  0
    7.5401   21.5334   21.3216 N   0  0  0  0  0  0  0  0  0  0  0  0
    6.9868   20.4621   21.9754 C   0  0  0  0  0  0  0  0  0  0  0  0
    5.6749   20.2931   21.6002 C   0  0  0  0  0  0  0  0  0  0  0  0
 18 19  1  0  0  0
 19 20  1  0  0  0
 20 21  2  0  0  0
 21 22  1  0  0  0
 22 23  2  0  0  0
 23 15  1  0  0  0
 15 16  1  0  0  0
 16 17  1  0  0  0
 17  1  1  0  0  0
  1  2  2  0  0  0
  1  3  1  0  0  0
  3  5  1  0  0  0
  5  6  2  0  0  0
  6  7  1  0  0  0
  7  8  1  0  0  0
  8  9  2  0  0  0
  9 10  1  0  0  0
 10 11  2  0  0  0
 11 12  1  0  0  0
 12 13  2  0  0  0
 23 19  1  0  0  0
 17 15  1  0  0  0
 13  5  1  0  0  0
 13  8  1  0  0  0
  3  4  1  0  0  0
  7 14  1  0  0  0
M  END
> <minimizedAffinity>
-10.00497

$$$$
OCNT-2308553


 23 26  0  0  0  0  0  0  0  0999 V2000
    2.1653   15.4949   21.7343 C   0  0  0  0  0  0  0  0  0  0  0  0
    3.2506   15.6481   22.3081 O   0  0  0  0  0  0  0  0  0  0  0  0
    1.6977   16.3286   20.7002 N   0  0  0  0  0  0  0  0  0  0  0  0
    0.4290   16.0911   19.9974 C   0  0  0  0  0  0  0  0  0  0  0  0
    0.3838   16.7534   18.6178 C   0  0  0  0  0  0  0  0  0  0  0  0
    0.7600   18.2263   18.7113 C   0  0  0  0  0  0  0  0  0  0  0  0
    1.9679   18.3821   19.4866 N   0  0  0  0  0  0  0  0  0  0  0  0
    2.7592   19.4546   19.3700 N   0  0  0  0  0  0  0  0  0  0  0  0
    3.7146   19.1746   20.2758 C   0  0  0  0  0  0  0  0  0  0  0  0
    3.5171   17.9795   20.9384 N   0  0  0  0  0  0  0  0  0  0  0  0
    2.4110   17.4964   20.4289 C   0  0  0  0  0  0  0  0  0  0  0  0
   -0.7832   12.2936   23.2278 C   0  0  0  0  0  0  0  0  0  0  0  0
   -0.4527   13.7735   23.4242 C   0  0  0  0  0  0  0  0  0  0  0  0
   -1.3826   14.4215   24.4449 C   0  0  0  0  0  0  0  0  0  0  0  0
    1.0531   14.0611   23.6727 C   0  0  0  0  0  0  0  0  0  0  0  0
    1.2250   14.3223   22.1508 C   0  0  0  0  0  0  0  0  0  0  0  0
   -0.3104   14.5750   22.1011 C   0  0  0  0  0  0  0  0  0  0  0  0
    4.8594   20.0357   20.5567 C   0  0  0  0  0  0  0  0  0  0  0  0
    5.8857   19.5906   21.4030 C   0  0  0  0  0  0  0  0  0  0  0  0
    6.9860   20.4064   21.6786 C   0  0  0  0  0  0  0  0  0  0  0  0
    7.0720   21.6763   21.1108 C   0  0  0  0  0  0  0  0  0  0  0  0
    6.0597   22.1318   20.2678 C   0  0  0  0  0  0  0  0  0  0  0  0
    4.9590   21.3159   19.9920 C   0  0  0  0  0  0  0  0  0  0  0  0
 12 13  1  0  0  0
 13 14  1  0  0  0
 13 15  1  0  0  0
 15 16  1  0  0  0
 16  1  1  0  0  0
  1  2  2  0  0  0
  1  3  1  0  0  0
  3  4  1  0  0  0
  4  5  1  0  0  0
  5  6  1  0  0  0
  6  7  1  0  0  0
  7  8  1  0  0  0
  8  9  2  0  0  0
  9 18  1  0  0  0
 18 19  2  0  0  0
 19 20  1  0  0  0
 20 21  2  0  0  0
 21 22  1  0  0  0
 22 23  2  0  0  0
  9 10  1  0  0  0
 10 11  2  0  0  0
 16 17  1  0  0  0
 17 13  1  0  0  0
 11  3  1  0  0  0
 11  7  1  0  0  0
 23 18  1  0  0  0
M  END
> <minimizedAffinity>
-8.71103

$$$$
OCNT-2308554


 28 32  0  0  0  0  0  0  0  0999 V2000
    3.1099   17.0164   21.3810 C   0  0  0  0  0  0  0  0  0  0  0  0
    2.8700   16.0049   22.0464 O   0  0  0  0  0  0  0  0  0  0  0  0
    4.2660   17.7697   21.5640 N   0  0  0  0  0  0  0  0  0  0  0  0
    4.8532   17.6925   22.9011 C   0  0  0  0  0  0  0  0  0  0  0  0
    6.1257   18.5104   23.0811 C   0  0  0  0  0  0  0  0  0  0  0  0
    5.9773   19.8700   22.5346 N   0  0  0  0  0  0  0  0  0  0  0  0
    5.6915   19.7460   21.1292 C   0  0  0  0  0  0  0  0  0  0  0  0
    6.2608   20.6725   20.2251 C   0  0  0  0  0  0  0  0  0  0  0  0
    7.1441   21.7983   20.6854 C   0  0  0  0  0  0  0  0  0  0  0  0
    5.9852   20.5571   18.8552 C   0  0  0  0  0  0  0  0  0  0  0  0
    5.2029   19.5127   18.3752 C   0  0  0  0  0  0  0  0  0  0  0  0
    4.6544   18.5847   19.2599 C   0  0  0  0  0  0  0  0  0  0  0  0
    4.8490   18.7039   20.6432 C   0  0  0  0  0  0  0  0  0  0  0  0
   -2.7465   18.9963   16.3353 C   0  0  0  0  0  0  0  0  0  0  0  0
   -1.6982   18.4476   17.2540 C   0  0  0  0  0  0  0  0  0  0  0  0
   -0.7507   19.2106   17.8202 C   0  0  0  0  0  0  0  0  0  0  0  0
    0.2660   18.6060   18.7259 C   0  0  0  0  0  0  0  0  0  0  0  0
    1.1696   19.3764   19.2523 N   0  0  0  0  0  0  0  0  0  0  0  0
    2.0738   18.7879   20.0933 C   0  0  0  0  0  0  0  0  0  0  0  0
    2.0856   17.4922   20.4254 C   0  0  0  0  0  0  0  0  0  0  0  0
    1.1163   16.5974   19.7598 C   0  0  0  0  0  0  0  0  0  0  0  0
    1.1855   15.3769   19.9090 O   0  0  0  0  0  0  0  0  0  0  0  0
    0.1780   17.2363   18.9508 N   0  0  0  0  0  0  0  0  0  0  0  0
   -0.8133   16.4788   18.3378 C   0  0  0  0  0  0  0  0  0  0  0  0
   -1.7247   17.0283   17.5259 C   0  0  0  0  0  0  0  0  0  0  0  0
    5.0257   20.7388   23.2778 C   0  0  0  0  0  0  0  0  0  0  0  0
    5.3456   22.1828   23.5626 C   0  0  0  0  0  0  0  0  0  0  0  0
    4.2719   21.8362   22.5782 C   0  0  0  0  0  0  0  0  0  0  0  0
 14 15  1  0  0  0
 15 16  2  0  0  0
 16 17  1  0  0  0
 17 18  2  0  0  0
 18 19  1  0  0  0
 19 20  2  0  0  0
 20  1  1  0  0  0
  1  2  2  0  0  0
  1  3  1  0  0  0
  3  4  1  0  0  0
  4  5  1  0  0  0
  5  6  1  0  0  0
  6 26  1  0  0  0
 26 27  1  0  0  0
 27 28  1  0  0  0
  6  7  1  0  0  0
  7  8  1  0  0  0
  8  9  1  0  0  0
  8 10  2  0  0  0
 10 11  1  0  0  0
 11 12  2  0  0  0
 12 13  1  0  0  0
 20 21  1  0  0  0
 21 22  2  0  0  0
 21 23  1  0  0  0
 23 24  1  0  0  0
 24 25  2  0  0  0
 25 15  1  0  0  0
 23 17  1  0  0  0
 13  3  1  0  0  0
 28 26  1  0  0  0
 13  7  2  0  0  0
M  END
> <minimizedAffinity>
0.25690

$$$$
OCNT-2308562


 22 24  0  0  0  0  0  0  0  0999 V2000
    0.5020   14.8450   19.8730 C   0  0  0  0  0  0  0  0  0  0  0  0
   -0.4128   14.3749   18.9183 C   0  0  0  0  0  0  0  0  0  0  0  0
   -0.8649   15.2002   17.8950 C   0  0  0  0  0  0  0  0  0  0  0  0
   -0.4164   16.5174   17.7926 C   0  0  0  0  0  0  0  0  0  0  0  0
    0.5181   16.9792   18.7345 C   0  0  0  0  0  0  0  0  0  0  0  0
    1.0046   16.1707   19.7683 C   0  0  0  0  0  0  0  0  0  0  0  0
    1.9586   16.7895   20.5739 N   0  0  0  0  0  0  0  0  0  0  0  0
    2.1579   18.0205   20.1765 C   0  0  0  0  0  0  0  0  0  0  0  0
    1.2470   18.5352   18.8437 S   0  0  0  0  0  0  0  0  0  0  0  0
    3.0949   18.8034   20.7978 N   0  0  0  0  0  0  0  0  0  0  0  0
    4.3607   18.4358   21.2108 C   0  0  0  0  0  0  0  0  0  0  0  0
    4.9016   17.3595   20.9950 O   0  0  0  0  0  0  0  0  0  0  0  0
    2.7576   19.7401   20.9761 H   0  0  0  0  0  0  0  0  0  0  0  0
    5.0453   19.5588   21.9961 C   0  0  0  0  0  0  0  0  0  0  0  0
    6.5428   19.2648   22.2287 C   0  0  0  0  0  0  0  0  0  0  0  0
    7.4674   20.3279   21.6626 C   0  0  0  0  0  0  0  0  0  0  0  0
    7.0153   21.7453   21.9923 C   0  0  0  0  0  0  0  0  0  0  0  0
    5.6163   21.8812   22.2289 O   0  0  0  0  0  0  0  0  0  0  0  0
    4.7796   20.9857   21.4788 C   0  0  0  0  0  0  0  0  0  0  0  0
    4.8966   21.2680   19.9799 C   0  0  0  0  0  0  0  0  0  0  0  0
    0.3382   14.1461   22.1356 C   0  0  0  0  0  0  0  0  0  0  0  0
    0.8498   13.8955   20.8296 O   0  0  0  0  0  0  0  0  0  0  0  0
 21 22  1  0  0  0
 22  1  1  0  0  0
  1  2  1  0  0  0
  2  3  2  0  0  0
  3  4  1  0  0  0
  4  5  2  0  0  0
  5  6  1  0  0  0
  6  7  1  0  0  0
  7  8  2  0  0  0
  8 10  1  0  0  0
 10 11  1  0  0  0
 11 12  2  0  0  0
 11 14  1  0  0  0
 14 15  1  0  0  0
 15 16  1  0  0  0
 16 17  1  0  0  0
 17 18  1  0  0  0
 18 19  1  0  0  0
 19 20  1  0  0  0
  8  9  1  0  0  0
  6  1  2  0  0  0
 19 14  1  0  0  0
  9  5  1  0  0  0
 10 13  1  0  0  0
M  END
> <minimizedAffinity>
-9.46022

$$$$
OCNT-2308571


 25 27  0  0  0  0  0  0  0  0999 V2000
    3.2194   14.9994   22.1251 C   0  0  0  0  0  0  0  0  0  0  0  0
    5.6296   16.2363   21.3812 O   0  0  0  0  0  0  0  0  0  0  0  0
    4.6029   16.9050   21.3871 C   0  0  0  0  0  0  0  0  0  0  0  0
    3.3722   16.3943   21.7425 N   0  0  0  0  0  0  0  0  0  0  0  0
    2.5916   17.0158   21.9073 H   0  0  0  0  0  0  0  0  0  0  0  0
    4.6535   18.3514   21.0399 C   0  0  0  0  0  0  0  0  0  0  0  0
    3.8381   18.8115   19.9942 C   0  0  0  0  0  0  0  0  0  0  0  0
    3.8474   20.1607   19.6354 C   0  0  0  0  0  0  0  0  0  0  0  0
    4.6638   21.0494   20.3277 C   0  0  0  0  0  0  0  0  0  0  0  0
    4.6604   22.3411   19.9682 F   0  0  0  0  0  0  0  0  0  0  0  0
    5.4645   20.6042   21.3787 C   0  0  0  0  0  0  0  0  0  0  0  0
    6.4641   21.7060   22.2460 Cl  0  0  0  0  0  0  0  0  0  0  0  0
    5.4607   19.2557   21.7427 C   0  0  0  0  0  0  0  0  0  0  0  0
    1.7577   14.5871   22.2812 C   0  0  0  0  0  0  0  0  0  0  0  0
    1.0161   14.8212   21.0246 C   0  0  0  0  0  0  0  0  0  0  0  0
    0.2612   13.9934   20.3357 N   0  0  0  0  0  0  0  0  0  0  0  0
   -0.2075   14.7110   19.2542 N   0  0  0  0  0  0  0  0  0  0  0  0
    0.2942   15.9266   19.3589 C   0  0  0  0  0  0  0  0  0  0  0  0
    1.0864   16.0695   20.4708 O   0  0  0  0  0  0  0  0  0  0  0  0
    0.1289   17.0892   18.4962 C   0  0  0  0  0  0  0  0  0  0  0  0
   -0.5899   17.0236   17.2923 C   0  0  0  0  0  0  0  0  0  0  0  0
   -0.7325   18.1544   16.4831 C   0  0  0  0  0  0  0  0  0  0  0  0
   -0.1586   19.3645   16.8670 C   0  0  0  0  0  0  0  0  0  0  0  0
    0.5578   19.4466   18.0586 C   0  0  0  0  0  0  0  0  0  0  0  0
    0.7005   18.3161   18.8674 C   0  0  0  0  0  0  0  0  0  0  0  0
  2  3  2  0  0  0
  3  4  1  0  0  0
  4  1  1  0  0  0
  1 14  1  0  0  0
 14 15  1  0  0  0
 15 16  2  0  0  0
 16 17  1  0  0  0
 17 18  2  0  0  0
 18 20  1  0  0  0
 20 21  2  0  0  0
 21 22  1  0  0  0
 22 23  2  0  0  0
 23 24  1  0  0  0
 24 25  2  0  0  0
 18 19  1  0  0  0
  3  6  1  0  0  0
  6  7  1  0  0  0
  7  8  2  0  0  0
  8  9  1  0  0  0
  9 10  1  0  0  0
  9 11  2  0  0  0
 11 12  1  0  0  0
 11 13  1  0  0  0
 19 15  1  0  0  0
 13  6  2  0  0  0
 25 20  1  0  0  0
  4  5  1  0  0  0
M  END
> <minimizedAffinity>
-10.92885

$$$$
OCNT-2308588


 23 25  0  0  0  0  0  0  0  0999 V2000
    2.8749   16.1405   21.0615 C   0  0  0  0  0  0  0  0  0  0  0  0
    2.8003   15.2079   22.0288 N   0  0  0  0  0  0  0  0  0  0  0  0
    1.6663   14.4912   22.1361 C   0  0  0  0  0  0  0  0  0  0  0  0
    0.5842   14.6694   21.3214 C   0  0  0  0  0  0  0  0  0  0  0  0
    0.7378   15.6558   20.3803 C   0  0  0  0  0  0  0  0  0  0  0  0
    1.8586   16.3803   20.2210 N   0  0  0  0  0  0  0  0  0  0  0  0
    4.6635   19.9997   21.4413 N   0  0  0  0  0  0  0  0  0  0  0  0
    5.2160   19.1968   22.5302 C   0  0  0  0  0  0  0  0  0  0  0  0
    5.9751   17.9280   22.1367 C   0  0  0  0  0  0  0  0  0  0  0  0
    5.0625   16.7171   21.9485 C   0  0  0  0  0  0  0  0  0  0  0  0
    4.0331   16.8840   20.9353 N   0  0  0  0  0  0  0  0  0  0  0  0
    4.0757   17.9717   19.9687 C   0  0  0  0  0  0  0  0  0  0  0  0
    3.6711   19.3221   20.5972 C   0  0  0  0  0  0  0  0  0  0  0  0
    6.5314   21.5089   21.8755 C   0  0  0  0  0  0  0  0  0  0  0  0
    5.5936   20.9384   20.8015 C   0  0  0  0  0  0  0  0  0  0  0  0
    4.9730   22.0875   20.0033 C   0  0  0  0  0  0  0  0  0  0  0  0
   -0.2711   15.9067   19.4721 O   0  0  0  0  0  0  0  0  0  0  0  0
   -0.1601   17.0785   18.7572 C   0  0  0  0  0  0  0  0  0  0  0  0
    0.2110   18.2948   19.3373 C   0  0  0  0  0  0  0  0  0  0  0  0
    0.3258   19.4358   18.5420 C   0  0  0  0  0  0  0  0  0  0  0  0
    0.0851   19.3587   17.1699 C   0  0  0  0  0  0  0  0  0  0  0  0
   -0.2619   18.1391   16.5882 C   0  0  0  0  0  0  0  0  0  0  0  0
   -0.3775   16.9967   17.3808 C   0  0  0  0  0  0  0  0  0  0  0  0
 14 15  1  0  0  0
 15 16  1  0  0  0
 15  7  1  0  0  0
  7  8  1  0  0  0
  8  9  1  0  0  0
  9 10  1  0  0  0
 10 11  1  0  0  0
 11  1  1  0  0  0
  1  2  2  0  0  0
  2  3  1  0  0  0
  3  4  2  0  0  0
  4  5  1  0  0  0
  5 17  1  0  0  0
 17 18  1  0  0  0
 18 19  2  0  0  0
 19 20  1  0  0  0
 20 21  2  0  0  0
 21 22  1  0  0  0
 22 23  2  0  0  0
  5  6  2  0  0  0
 11 12  1  0  0  0
 12 13  1  0  0  0
 13  7  1  0  0  0
  6  1  1  0  0  0
 23 18  1  0  0  0
M  END
> <minimizedAffinity>
-9.78162

$$$$
OCNT-2308594


 28 30  0  0  0  0  0  0  0  0999 V2000
    3.0321   14.0702   22.6544 C   0  0  0  0  0  0  0  0  0  0  0  0
    2.3718   14.8888   21.5790 C   0  0  0  0  0  0  0  0  0  0  0  0
    1.0990   14.4712   21.1505 C   0  0  0  0  0  0  0  0  0  0  0  0
    0.3647   15.2123   20.2223 C   0  0  0  0  0  0  0  0  0  0  0  0
    0.8758   16.4015   19.6925 C   0  0  0  0  0  0  0  0  0  0  0  0
    2.1574   16.8050   20.1056 C   0  0  0  0  0  0  0  0  0  0  0  0
    2.9274   16.0449   21.0073 C   0  0  0  0  0  0  0  0  0  0  0  0
    0.1009   17.2000   18.7329 C   0  0  0  0  0  0  0  0  0  0  0  0
   -1.2693   16.9931   18.5359 C   0  0  0  0  0  0  0  0  0  0  0  0
   -2.0453   17.6977   17.6729 N   0  0  0  0  0  0  0  0  0  0  0  0
   -1.4236   18.6646   16.9605 C   0  0  0  0  0  0  0  0  0  0  0  0
   -0.0756   18.9478   17.0772 C   0  0  0  0  0  0  0  0  0  0  0  0
    0.4843   19.9191   16.3450 F   0  0  0  0  0  0  0  0  0  0  0  0
    0.6954   18.2125   17.9677 C   0  0  0  0  0  0  0  0  0  0  0  0
    4.2083   16.5610   21.3090 N   0  0  0  0  0  0  0  0  0  0  0  0
    4.4666   17.7159   22.0234 C   0  0  0  0  0  0  0  0  0  0  0  0
    3.6445   18.4073   22.6099 O   0  0  0  0  0  0  0  0  0  0  0  0
    5.8272   17.9721   22.0368 N   0  0  0  0  0  0  0  0  0  0  0  0
    4.9453   15.8798   21.4252 H   0  0  0  0  0  0  0  0  0  0  0  0
    6.3257   17.6661   21.2068 H   0  0  0  0  0  0  0  0  0  0  0  0
    6.3779   19.1538   22.6428 C   0  0  0  0  0  0  0  0  0  0  0  0
    7.6640   19.7384   22.1268 C   0  0  0  0  0  0  0  0  0  0  0  0
    6.3681   20.4560   21.8642 C   0  0  0  0  0  0  0  0  0  0  0  0
    6.0243   21.7180   22.5901 C   0  0  0  0  0  0  0  0  0  0  0  0
    5.8139   20.3453   20.5282 O   0  0  0  0  0  0  0  0  0  0  0  0
    4.5408   20.9779   20.3548 C   0  0  0  0  0  0  0  0  0  0  0  0
    3.6810   20.0881   19.4672 C   0  0  0  0  0  0  0  0  0  0  0  0
    4.7780   22.3315   19.6981 C   0  0  0  0  0  0  0  0  0  0  0  0
  1  2  1  0  0  0
  2  3  1  0  0  0
  3  4  2  0  0  0
  4  5  1  0  0  0
  5  8  1  0  0  0
  8  9  2  0  0  0
  9 10  1  0  0  0
 10 11  2  0  0  0
 11 12  1  0  0  0
 12 13  1  0  0  0
 12 14  2  0  0  0
  5  6  2  0  0  0
  6  7  1  0  0  0
  7 15  1  0  0  0
 15 16  1  0  0  0
 16 17  2  0  0  0
 16 18  1  0  0  0
 18 21  1  0  0  0
 21 22  1  0  0  0
 22 23  1  0  0  0
 23 24  1  0  0  0
 23 25  1  0  0  0
 25 26  1  0  0  0
 26 27  1  0  0  0
 26 28  1  0  0  0
  7  2  2  0  0  0
 23 21  1  0  0  0
 14  8  1  0  0  0
 15 19  1  0  0  0
 18 20  1  0  0  0
M  END
> <minimizedAffinity>
-8.89869

$$$$
OCNT-2308597


 28 31  0  0  0  0  0  0  0  0999 V2000
    1.0781   17.2531   19.8074 C   0  0  0  0  0  0  0  0  0  0  0  0
   -0.0670   17.1976   19.0767 N   0  0  0  0  0  0  0  0  0  0  0  0
   -0.3935   18.2219   18.2742 C   0  0  0  0  0  0  0  0  0  0  0  0
    0.2856   19.3582   18.0820 N   0  0  0  0  0  0  0  0  0  0  0  0
    1.4059   19.3867   18.8159 C   0  0  0  0  0  0  0  0  0  0  0  0
    1.8811   18.4143   19.6875 C   0  0  0  0  0  0  0  0  0  0  0  0
    3.1162   18.9330   20.2247 C   0  0  0  0  0  0  0  0  0  0  0  0
    4.0867   18.4712   21.1437 C   0  0  0  0  0  0  0  0  0  0  0  0
    5.2060   19.2579   21.4495 C   0  0  0  0  0  0  0  0  0  0  0  0
    5.3733   20.5010   20.8526 C   0  0  0  0  0  0  0  0  0  0  0  0
    6.8925   21.5443   21.2823 Br  0  0  0  0  0  0  0  0  0  0  0  0
    4.4411   20.9969   19.9410 C   0  0  0  0  0  0  0  0  0  0  0  0
    3.3296   20.1931   19.6501 C   0  0  0  0  0  0  0  0  0  0  0  0
    2.2770   20.4336   18.8034 N   0  0  0  0  0  0  0  0  0  0  0  0
    2.1456   21.2614   18.2425 H   0  0  0  0  0  0  0  0  0  0  0  0
    0.5429   13.9655   21.4521 C   0  0  0  0  0  0  0  0  0  0  0  0
    2.0065   13.6461   21.8000 C   0  0  0  0  0  0  0  0  0  0  0  0
    2.8353   14.9057   22.0520 C   0  0  0  0  0  0  0  0  0  0  0  0
    2.7267   15.8842   20.8829 C   0  0  0  0  0  0  0  0  0  0  0  0
    1.3193   16.1344   20.6020 N   0  0  0  0  0  0  0  0  0  0  0  0
    0.4737   14.9805   20.2975 C   0  0  0  0  0  0  0  0  0  0  0  0
   -0.2416   14.4707   22.6717 C   0  0  0  0  0  0  0  0  0  0  0  0
   -0.2475   13.4426   23.6674 O   0  0  0  0  0  0  0  0  0  0  0  0
   -1.5121   13.3128   24.3042 C   0  0  0  0  0  0  0  0  0  0  0  0
   -2.2818   12.0138   24.0700 C   0  0  0  0  0  0  0  0  0  0  0  0
   -1.9193   11.1326   23.2997 O   0  0  0  0  0  0  0  0  0  0  0  0
   -4.6222   11.9506   24.1292 C   0  0  0  0  0  0  0  0  0  0  0  0
   -3.3939   11.9529   24.8557 O   0  0  0  0  0  0  0  0  0  0  0  0
 27 28  1  0  0  0
 28 25  1  0  0  0
 25 26  2  0  0  0
 25 24  1  0  0  0
 24 23  1  0  0  0
 23 22  1  0  0  0
 22 16  1  0  0  0
 16 17  1  0  0  0
 17 18  1  0  0  0
 18 19  1  0  0  0
 19 20  1  0  0  0
 20  1  1  0  0  0
  1  2  1  0  0  0
  2  3  2  0  0  0
  3  4  1  0  0  0
  4  5  2  0  0  0
  5  6  1  0  0  0
  6  7  1  0  0  0
  7  8  2  0  0  0
  8  9  1  0  0  0
  9 10  2  0  0  0
 10 11  1  0  0  0
 10 12  1  0  0  0
 12 13  2  0  0  0
 13 14  1  0  0  0
 20 21  1  0  0  0
 21 16  1  0  0  0
  6  1  2  0  0  0
 13  7  1  0  0  0
 14  5  1  0  0  0
 14 15  1  0  0  0
M  END
> <minimizedAffinity>
-8.83038

$$$$
OCNT-2308600


 27 29  0  0  0  0  0  0  0  0999 V2000
    1.3930   19.4350   18.9192 C   0  0  0  0  0  0  0  0  0  0  0  0
    0.9517   20.4805   19.3903 O   0  0  0  0  0  0  0  0  0  0  0  0
    2.7375   19.1198   18.9542 N   0  0  0  0  0  0  0  0  0  0  0  0
    3.0673   18.3810   18.3479 H   0  0  0  0  0  0  0  0  0  0  0  0
    0.2858   14.8707   19.6373 C   0  0  0  0  0  0  0  0  0  0  0  0
   -0.5580   14.4080   18.6271 C   0  0  0  0  0  0  0  0  0  0  0  0
   -0.9857   15.2535   17.5943 C   0  0  0  0  0  0  0  0  0  0  0  0
   -0.5260   16.5730   17.6124 C   0  0  0  0  0  0  0  0  0  0  0  0
   -0.7675   17.6280   16.7784 N   0  0  0  0  0  0  0  0  0  0  0  0
   -0.1360   18.7585   17.1195 N   0  0  0  0  0  0  0  0  0  0  0  0
    0.5501   18.4383   18.2342 C   0  0  0  0  0  0  0  0  0  0  0  0
    0.3272   17.0685   18.5910 C   0  0  0  0  0  0  0  0  0  0  0  0
    0.7286   16.2018   19.6282 C   0  0  0  0  0  0  0  0  0  0  0  0
   -1.3592   17.6419   15.9557 H   0  0  0  0  0  0  0  0  0  0  0  0
    1.7358   14.7420   21.5210 C   0  0  0  0  0  0  0  0  0  0  0  0
    0.7536   14.1330   20.6920 O   0  0  0  0  0  0  0  0  0  0  0  0
    3.7271   20.0415   19.4890 C   0  0  0  0  0  0  0  0  0  0  0  0
    3.0640   21.3292   19.9978 C   0  0  0  0  0  0  0  0  0  0  0  0
    4.5470   19.3407   20.5627 C   0  0  0  0  0  0  0  0  0  0  0  0
    4.3704   17.9464   20.7379 C   0  0  0  0  0  0  0  0  0  0  0  0
    5.0762   17.2319   21.7048 C   0  0  0  0  0  0  0  0  0  0  0  0
    5.9834   17.8922   22.5170 C   0  0  0  0  0  0  0  0  0  0  0  0
    6.1874   19.2603   22.3471 C   0  0  0  0  0  0  0  0  0  0  0  0
    5.4942   20.0067   21.3720 C   0  0  0  0  0  0  0  0  0  0  0  0
    5.8309   21.3648   21.3066 N   0  0  0  0  0  0  0  0  0  0  0  0
    7.1090   21.6422   20.6580 C   0  0  0  0  0  0  0  0  0  0  0  0
    5.4938   22.1820   22.4681 C   0  0  0  0  0  0  0  0  0  0  0  0
 15 16  1  0  0  0
 16  5  1  0  0  0
  5  6  2  0  0  0
  6  7  1  0  0  0
  7  8  2  0  0  0
  8  9  1  0  0  0
  9 10  1  0  0  0
 10 11  2  0  0  0
 11  1  1  0  0  0
  1  2  2  0  0  0
  1  3  1  0  0  0
  3 17  1  0  0  0
 17 18  1  0  0  0
 17 19  1  0  0  0
 19 20  2  0  0  0
 20 21  1  0  0  0
 21 22  2  0  0  0
 22 23  1  0  0  0
 23 24  2  0  0  0
 24 25  1  0  0  0
 25 26  1  0  0  0
 25 27  1  0  0  0
 11 12  1  0  0  0
 12 13  2  0  0  0
 13  5  1  0  0  0
 12  8  1  0  0  0
 24 19  1  0  0  0
  9 14  1  0  0  0
  3  4  1  0  0  0
M  END
> <minimizedAffinity>
-10.34039

$$$$
OCNT-2308605


 23 25  0  0  0  0  0  0  0  0999 V2000
    2.4270   18.1441   20.2340 C   0  0  0  0  0  0  0  0  0  0  0  0
    2.6701   16.9981   20.6172 O   0  0  0  0  0  0  0  0  0  0  0  0
    3.4023   19.1456   20.2907 N   0  0  0  0  0  0  0  0  0  0  0  0
    3.3426   20.3906   19.4841 C   0  0  0  0  0  0  0  0  0  0  0  0
    3.9584   21.6159   20.1985 C   0  0  0  0  0  0  0  0  0  0  0  0
    5.2191   21.1920   20.8411 C   0  0  0  0  0  0  0  0  0  0  0  0
    5.5666   19.8894   21.1143 C   0  0  0  0  0  0  0  0  0  0  0  0
    6.8246   19.9945   21.7345 C   0  0  0  0  0  0  0  0  0  0  0  0
    7.2362   21.2646   21.8353 N   0  0  0  0  0  0  0  0  0  0  0  0
    6.2318   21.9785   21.2921 N   0  0  0  0  0  0  0  0  0  0  0  0
    4.7303   18.7103   20.7760 C   0  0  0  0  0  0  0  0  0  0  0  0
    6.3178   22.9899   21.2663 H   0  0  0  0  0  0  0  0  0  0  0  0
    1.0613   18.5483   19.6862 C   0  0  0  0  0  0  0  0  0  0  0  0
    0.1039   18.7755   16.6000 C   0  0  0  0  0  0  0  0  0  0  0  0
   -0.0174   17.6034   17.5024 C   0  0  0  0  0  0  0  0  0  0  0  0
   -0.6059   16.4854   17.0669 N   0  0  0  0  0  0  0  0  0  0  0  0
   -0.5134   15.6281   18.1107 N   0  0  0  0  0  0  0  0  0  0  0  0
    0.0709   16.1962   19.2199 C   0  0  0  0  0  0  0  0  0  0  0  0
    0.2600   15.4511   20.4913 C   0  0  0  0  0  0  0  0  0  0  0  0
    0.4090   17.4898   18.8540 C   0  0  0  0  0  0  0  0  0  0  0  0
   -1.0312   14.2675   17.9840 C   0  0  0  0  0  0  0  0  0  0  0  0
   -0.1383   13.3535   18.4583 F   0  0  0  0  0  0  0  0  0  0  0  0
   -1.2635   13.9387   16.6831 F   0  0  0  0  0  0  0  0  0  0  0  0
 14 15  1  0  0  0
 15 16  2  0  0  0
 16 17  1  0  0  0
 17 21  1  0  0  0
 21 22  1  0  0  0
 21 23  1  0  0  0
 17 18  1  0  0  0
 18 19  1  0  0  0
 18 20  2  0  0  0
 20 13  1  0  0  0
 13  1  1  0  0  0
  1  2  2  0  0  0
  1  3  1  0  0  0
  3  4  1  0  0  0
  4  5  1  0  0  0
  5  6  1  0  0  0
  6  7  2  0  0  0
  7  8  1  0  0  0
  8  9  2  0  0  0
  9 10  1  0  0  0
  7 11  1  0  0  0
 20 15  1  0  0  0
 11  3  1  0  0  0
 10  6  1  0  0  0
 10 12  1  0  0  0
M  END
> <minimizedAffinity>
-8.61739

$$$$
OCNT-2308619


 28 31  0  0  0  0  0  0  0  0999 V2000
    0.4561   14.2860   21.4512 O   0  0  0  0  0  0  0  0  0  0  0  0
    0.8581   15.2232   20.7680 C   0  0  0  0  0  0  0  0  0  0  0  0
    1.9017   16.0350   21.1644 N   0  0  0  0  0  0  0  0  0  0  0  0
    2.3111   16.6060   20.4303 H   0  0  0  0  0  0  0  0  0  0  0  0
    0.3017   15.5858   19.4690 C   0  0  0  0  0  0  0  0  0  0  0  0
    0.4324   16.7676   18.7522 C   0  0  0  0  0  0  0  0  0  0  0  0
   -0.2959   16.5193   17.6169 N   0  0  0  0  0  0  0  0  0  0  0  0
   -0.8254   15.2897   17.6079 N   0  0  0  0  0  0  0  0  0  0  0  0
   -0.4731   14.7034   18.7403 N   0  0  0  0  0  0  0  0  0  0  0  0
   -0.4798   17.1361   16.8348 H   0  0  0  0  0  0  0  0  0  0  0  0
    1.0896   18.0434   18.9977 C   0  0  0  0  0  0  0  0  0  0  0  0
    2.4878   18.1188   19.0749 C   0  0  0  0  0  0  0  0  0  0  0  0
    3.1232   19.3460   19.2821 C   0  0  0  0  0  0  0  0  0  0  0  0
    2.3677   20.5091   19.4129 C   0  0  0  0  0  0  0  0  0  0  0  0
    0.9781   20.4458   19.3401 C   0  0  0  0  0  0  0  0  0  0  0  0
    0.3423   19.2191   19.1326 C   0  0  0  0  0  0  0  0  0  0  0  0
    2.7498   15.6549   22.2746 C   0  0  0  0  0  0  0  0  0  0  0  0
    4.2274   15.8860   21.9294 C   0  0  0  0  0  0  0  0  0  0  0  0
    4.9543   14.9641   21.5514 O   0  0  0  0  0  0  0  0  0  0  0  0
    4.6826   17.1809   22.0032 N   0  0  0  0  0  0  0  0  0  0  0  0
    3.9238   18.3492   22.4500 C   0  0  0  0  0  0  0  0  0  0  0  0
    4.8960   19.4737   22.3019 C   0  0  0  0  0  0  0  0  0  0  0  0
    4.7066   20.8218   22.5538 C   0  0  0  0  0  0  0  0  0  0  0  0
    5.7810   21.6892   22.3437 C   0  0  0  0  0  0  0  0  0  0  0  0
    7.0182   21.2023   21.8908 C   0  0  0  0  0  0  0  0  0  0  0  0
    7.2004   19.8402   21.6411 C   0  0  0  0  0  0  0  0  0  0  0  0
    6.1299   18.9880   21.8510 C   0  0  0  0  0  0  0  0  0  0  0  0
    6.0650   17.5063   21.6633 C   0  0  0  0  0  0  0  0  0  0  0  0
  1  2  2  0  0  0
  2  3  1  0  0  0
  3 17  1  0  0  0
 17 18  1  0  0  0
 18 19  2  0  0  0
 18 20  1  0  0  0
 20 21  1  0  0  0
 21 22  1  0  0  0
 22 23  2  0  0  0
 23 24  1  0  0  0
 24 25  2  0  0  0
 25 26  1  0  0  0
 26 27  2  0  0  0
 27 28  1  0  0  0
  2  5  1  0  0  0
  5  6  2  0  0  0
  6 11  1  0  0  0
 11 12  2  0  0  0
 12 13  1  0  0  0
 13 14  2  0  0  0
 14 15  1  0  0  0
 15 16  2  0  0  0
  6  7  1  0  0  0
  7  8  1  0  0  0
  8  9  2  0  0  0
 28 20  1  0  0  0
  9  5  1  0  0  0
 27 22  1  0  0  0
 16 11  1  0  0  0
  3  4  1  0  0  0
  7 10  1  0  0  0
M  END
> <minimizedAffinity>
-7.84384

$$$$
OCNT-2308626


 25 27  0  0  0  0  0  0  0  0999 V2000
    0.5370   17.5065   18.7650 C   0  0  0  0  0  0  0  0  0  0  0  0
   -0.0936   16.3846   19.3045 C   0  0  0  0  0  0  0  0  0  0  0  0
    0.5372   15.6206   20.2863 C   0  0  0  0  0  0  0  0  0  0  0  0
    1.8069   15.9748   20.7376 C   0  0  0  0  0  0  0  0  0  0  0  0
    2.3509   15.1572   21.6916 O   0  0  0  0  0  0  0  0  0  0  0  0
    3.7628   15.3059   21.8589 C   0  0  0  0  0  0  0  0  0  0  0  0
    4.1477   16.7610   22.0334 C   0  0  0  0  0  0  0  0  0  0  0  0
    3.8092   17.5152   20.7475 C   0  0  0  0  0  0  0  0  0  0  0  0
    2.4417   17.1189   20.2408 C   0  0  0  0  0  0  0  0  0  0  0  0
    1.8033   17.8665   19.2305 C   0  0  0  0  0  0  0  0  0  0  0  0
    3.8950   18.9486   20.9713 N   0  0  0  0  0  0  0  0  0  0  0  0
    4.5983   19.7790   20.1215 C   0  0  0  0  0  0  0  0  0  0  0  0
    5.0779   19.3751   19.0639 O   0  0  0  0  0  0  0  0  0  0  0  0
    3.7445   19.2902   21.9210 H   0  0  0  0  0  0  0  0  0  0  0  0
    4.6858   21.2609   20.5907 C   0  0  0  0  0  0  0  0  0  0  0  0
    5.9444   21.9212   20.0298 C   0  0  0  0  0  0  0  0  0  0  0  0
    6.9862   21.5140   21.0450 C   0  0  0  0  0  0  0  0  0  0  0  0
    6.2074   21.5432   22.3429 C   0  0  0  0  0  0  0  0  0  0  0  0
    4.8240   21.3399   22.0226 O   0  0  0  0  0  0  0  0  0  0  0  0
    3.3945   21.9923   20.1939 C   0  0  0  0  0  0  0  0  0  0  0  0
    2.4996   21.1436   19.4697 O   0  0  0  0  0  0  0  0  0  0  0  0
    1.7568   21.7071   19.1826 H   0  0  0  0  0  0  0  0  0  0  0  0
   -0.1826   18.1585   17.8024 O   0  0  0  0  0  0  0  0  0  0  0  0
   -2.1901   18.8115   16.6986 C   0  0  0  0  0  0  0  0  0  0  0  0
   -1.5843   17.8996   17.7504 C   0  0  0  0  0  0  0  0  0  0  0  0
 24 25  1  0  0  0
 25 23  1  0  0  0
 23  1  1  0  0  0
  1  2  1  0  0  0
  2  3  2  0  0  0
  3  4  1  0  0  0
  4  5  1  0  0  0
  5  6  1  0  0  0
  6  7  1  0  0  0
  7  8  1  0  0  0
  8 11  1  0  0  0
 11 12  1  0  0  0
 12 13  2  0  0  0
 12 15  1  0  0  0
 15 20  1  0  0  0
 20 21  1  0  0  0
 15 16  1  0  0  0
 16 17  1  0  0  0
 17 18  1  0  0  0
 18 19  1  0  0  0
  8  9  1  0  0  0
  9 10  1  0  0  0
 10  1  2  0  0  0
  9  4  2  0  0  0
 19 15  1  0  0  0
 11 14  1  0  0  0
 21 22  1  0  0  0
M  END
> <minimizedAffinity>
-8.54909

$$$$
OCNT-2308632


 22 24  0  0  0  0  0  0  0  0999 V2000
    1.3489   16.8537   20.1365 C   0  0  0  0  0  0  0  0  0  0  0  0
    1.4768   15.7653   20.8758 N   0  0  0  0  0  0  0  0  0  0  0  0
    2.6947   15.6860   21.5194 N   0  0  0  0  0  0  0  0  0  0  0  0
    3.4577   16.7180   21.2432 C   0  0  0  0  0  0  0  0  0  0  0  0
    2.7699   17.8147   20.1307 S   0  0  0  0  0  0  0  0  0  0  0  0
   -0.0259   18.4529   18.8851 C   0  0  0  0  0  0  0  0  0  0  0  0
    0.5261   19.4843   19.2780 O   0  0  0  0  0  0  0  0  0  0  0  0
    0.2011   17.1654   19.3848 N   0  0  0  0  0  0  0  0  0  0  0  0
   -0.6692   16.0415   19.0752 C   0  0  0  0  0  0  0  0  0  0  0  0
   -0.1740   14.6103   19.0773 C   0  0  0  0  0  0  0  0  0  0  0  0
   -0.5543   15.2535   17.7866 C   0  0  0  0  0  0  0  0  0  0  0  0
   -0.3382   18.6805   16.4046 C   0  0  0  0  0  0  0  0  0  0  0  0
   -1.0360   18.5876   17.7497 C   0  0  0  0  0  0  0  0  0  0  0  0
    5.0602   16.8638   21.9234 S   0  0  0  0  0  0  0  0  0  0  0  0
    4.9614   18.4738   22.7565 C   0  0  0  0  0  0  0  0  0  0  0  0
    5.6670   19.5926   22.0256 C   0  0  0  0  0  0  0  0  0  0  0  0
    7.0504   19.7905   22.1771 C   0  0  0  0  0  0  0  0  0  0  0  0
    7.6951   20.8269   21.4996 C   0  0  0  0  0  0  0  0  0  0  0  0
    6.9617   21.6640   20.6674 C   0  0  0  0  0  0  0  0  0  0  0  0
    7.5822   22.6558   20.0139 F   0  0  0  0  0  0  0  0  0  0  0  0
    5.5947   21.4848   20.4991 C   0  0  0  0  0  0  0  0  0  0  0  0
    4.9470   20.4497   21.1752 C   0  0  0  0  0  0  0  0  0  0  0  0
 12 13  1  0  0  0
 13  6  1  0  0  0
  6  7  2  0  0  0
  6  8  1  0  0  0
  8  1  1  0  0  0
  1  2  2  0  0  0
  2  3  1  0  0  0
  3  4  2  0  0  0
  4 14  1  0  0  0
 14 15  1  0  0  0
 15 16  1  0  0  0
 16 17  1  0  0  0
 17 18  2  0  0  0
 18 19  1  0  0  0
 19 20  1  0  0  0
 19 21  2  0  0  0
 21 22  1  0  0  0
  4  5  1  0  0  0
  8  9  1  0  0  0
  9 10  1  0  0  0
 10 11  1  0  0  0
  5  1  1  0  0  0
 11  9  1  0  0  0
 22 16  2  0  0  0
M  END
> <minimizedAffinity>
-8.88650

$$$$
OCNT-2308635


 26 28  0  0  0  0  0  0  0  0999 V2000
    3.1374   16.5627   22.0315 N   0  0  0  0  0  0  0  0  0  0  0  0
    4.4354   16.4523   21.5913 C   0  0  0  0  0  0  0  0  0  0  0  0
    4.9782   15.3734   21.3646 O   0  0  0  0  0  0  0  0  0  0  0  0
    2.6913   17.4691   22.0303 H   0  0  0  0  0  0  0  0  0  0  0  0
    5.1632   17.7671   21.3596 C   0  0  0  0  0  0  0  0  0  0  0  0
    5.7513   18.3512   22.6713 C   0  0  0  0  0  0  0  0  0  0  0  0
    6.5847   19.6236   22.4174 C   0  0  0  0  0  0  0  0  0  0  0  0
    5.8528   20.4970   21.4696 C   0  0  0  0  0  0  0  0  0  0  0  0
    4.8117   20.1299   20.6472 C   0  0  0  0  0  0  0  0  0  0  0  0
    4.4937   21.3011   19.9382 C   0  0  0  0  0  0  0  0  0  0  0  0
    5.2761   22.3289   20.2865 N   0  0  0  0  0  0  0  0  0  0  0  0
    6.1021   21.8118   21.2165 N   0  0  0  0  0  0  0  0  0  0  0  0
    4.2324   18.7627   20.6256 C   0  0  0  0  0  0  0  0  0  0  0  0
    6.8067   22.4172   21.6259 H   0  0  0  0  0  0  0  0  0  0  0  0
    2.2673   15.4116   22.1281 C   0  0  0  0  0  0  0  0  0  0  0  0
    0.3829   16.3703   18.9538 C   0  0  0  0  0  0  0  0  0  0  0  0
    1.1940   16.4524   20.0906 C   0  0  0  0  0  0  0  0  0  0  0  0
    1.3525   15.3468   20.9336 C   0  0  0  0  0  0  0  0  0  0  0  0
    0.6852   14.1587   20.6148 C   0  0  0  0  0  0  0  0  0  0  0  0
   -0.1559   14.0857   19.4981 C   0  0  0  0  0  0  0  0  0  0  0  0
   -0.3306   15.1957   18.6660 C   0  0  0  0  0  0  0  0  0  0  0  0
   -1.1572   15.2163   17.5740 O   0  0  0  0  0  0  0  0  0  0  0  0
   -1.3166   13.9960   16.8605 C   0  0  0  0  0  0  0  0  0  0  0  0
    0.2969   17.5233   18.2126 O   0  0  0  0  0  0  0  0  0  0  0  0
    1.0693   19.7359   18.6525 C   0  0  0  0  0  0  0  0  0  0  0  0
    0.0433   18.6763   19.0226 C   0  0  0  0  0  0  0  0  0  0  0  0
 25 26  1  0  0  0
 26 24  1  0  0  0
 24 16  1  0  0  0
 16 17  1  0  0  0
 17 18  2  0  0  0
 18 15  1  0  0  0
 15  1  1  0  0  0
  1  2  1  0  0  0
  2  3  2  0  0  0
  2  5  1  0  0  0
  5  6  1  0  0  0
  6  7  1  0  0  0
  7  8  1  0  0  0
  8  9  2  0  0  0
  9 10  1  0  0  0
 10 11  2  0  0  0
 11 12  1  0  0  0
  9 13  1  0  0  0
 18 19  1  0  0  0
 19 20  2  0  0  0
 20 21  1  0  0  0
 21 22  1  0  0  0
 22 23  1  0  0  0
 21 16  2  0  0  0
 13  5  1  0  0  0
 12  8  1  0  0  0
  1  4  1  0  0  0
 12 14  1  0  0  0
M  END
> <minimizedAffinity>
-8.30798

$$$$
OCNT-2308638


 24 27  0  0  0  0  0  0  0  0999 V2000
    3.5637   14.2267   22.0889 O   0  0  0  0  0  0  0  0  0  0  0  0
    2.4891   14.7591   22.3512 C   0  0  0  0  0  0  0  0  0  0  0  0
    2.2099   16.1118   22.2655 N   0  0  0  0  0  0  0  0  0  0  0  0
    1.2734   16.4046   22.5122 H   0  0  0  0  0  0  0  0  0  0  0  0
    1.3165   13.9044   22.8183 C   0  0  0  0  0  0  0  0  0  0  0  0
    0.0965   13.9738   21.8761 C   0  0  0  0  0  0  0  0  0  0  0  0
   -1.1063   13.8651   22.7640 C   0  0  0  0  0  0  0  0  0  0  0  0
   -0.6789   14.0555   24.1859 C   0  0  0  0  0  0  0  0  0  0  0  0
    0.8015   14.2878   24.2215 C   0  0  0  0  0  0  0  0  0  0  0  0
   -1.2528   12.7569   23.7443 C   0  0  0  0  0  0  0  0  0  0  0  0
   -0.4749   11.6277   23.6618 F   0  0  0  0  0  0  0  0  0  0  0  0
   -2.5018   12.3736   24.1711 F   0  0  0  0  0  0  0  0  0  0  0  0
    3.0825   17.1466   21.8683 C   0  0  0  0  0  0  0  0  0  0  0  0
    4.0379   17.5690   22.7983 C   0  0  0  0  0  0  0  0  0  0  0  0
    4.9425   18.5915   22.4841 C   0  0  0  0  0  0  0  0  0  0  0  0
    4.9175   19.2224   21.2313 C   0  0  0  0  0  0  0  0  0  0  0  0
    3.9546   18.7893   20.3073 C   0  0  0  0  0  0  0  0  0  0  0  0
    3.0496   17.7650   20.6204 C   0  0  0  0  0  0  0  0  0  0  0  0
    5.8612   20.2951   20.9002 C   0  0  0  0  0  0  0  0  0  0  0  0
    5.5023   21.4316   20.1929 C   0  0  0  0  0  0  0  0  0  0  0  0
    6.3463   22.4380   19.8739 N   0  0  0  0  0  0  0  0  0  0  0  0
    7.6109   22.2880   20.2914 C   0  0  0  0  0  0  0  0  0  0  0  0
    8.0914   21.2448   20.9826 N   0  0  0  0  0  0  0  0  0  0  0  0
    7.1978   20.2713   21.2658 C   0  0  0  0  0  0  0  0  0  0  0  0
  1  2  2  0  0  0
  2  3  1  0  0  0
  3 13  1  0  0  0
 13 14  1  0  0  0
 14 15  2  0  0  0
 15 16  1  0  0  0
 16 19  1  0  0  0
 19 20  2  0  0  0
 20 21  1  0  0  0
 21 22  2  0  0  0
 22 23  1  0  0  0
 23 24  2  0  0  0
 16 17  2  0  0  0
 17 18  1  0  0  0
  2  5  1  0  0  0
  5  6  1  0  0  0
  6  7  1  0  0  0
  7  8  1  0  0  0
  8  9  1  0  0  0
  8 10  1  0  0  0
 10 11  1  0  0  0
 10 12  1  0  0  0
 18 13  2  0  0  0
  9  5  1  0  0  0
 24 19  1  0  0  0
 10  7  1  0  0  0
  3  4  1  0  0  0
M  END
> <minimizedAffinity>
-2.22336

$$$$
OCNT-2308646


 22 24  0  0  0  0  0  0  0  0999 V2000
    2.5253   19.2709   20.2648 C   0  0  0  0  0  0  0  0  0  0  0  0
    1.5037   18.5709   19.4216 C   0  0  0  0  0  0  0  0  0  0  0  0
    0.7994   19.1186   18.3675 C   0  0  0  0  0  0  0  0  0  0  0  0
   -0.0303   18.1581   17.8562 N   0  0  0  0  0  0  0  0  0  0  0  0
   -0.9285   18.3565   16.7403 C   0  0  0  0  0  0  0  0  0  0  0  0
    0.1159   16.9779   18.5534 C   0  0  0  0  0  0  0  0  0  0  0  0
   -0.5136   15.7311   18.3956 C   0  0  0  0  0  0  0  0  0  0  0  0
   -0.1510   14.7015   19.2670 C   0  0  0  0  0  0  0  0  0  0  0  0
    0.8015   14.9169   20.2526 C   0  0  0  0  0  0  0  0  0  0  0  0
    1.1296   13.9098   21.0740 F   0  0  0  0  0  0  0  0  0  0  0  0
    1.4257   16.1531   20.4104 C   0  0  0  0  0  0  0  0  0  0  0  0
    1.0779   17.2092   19.5431 C   0  0  0  0  0  0  0  0  0  0  0  0
    4.4328   17.8735   19.3026 C   0  0  0  0  0  0  0  0  0  0  0  0
    3.9362   19.2822   19.6423 C   0  0  0  0  0  0  0  0  0  0  0  0
    4.8772   19.9889   20.5145 N   0  0  0  0  0  0  0  0  0  0  0  0
    4.9979   21.3533   20.5475 C   0  0  0  0  0  0  0  0  0  0  0  0
    4.4227   22.1572   19.8266 O   0  0  0  0  0  0  0  0  0  0  0  0
    5.9582   21.7315   21.6615 C   0  0  0  0  0  0  0  0  0  0  0  0
    6.2480   20.4393   22.2087 N   0  0  0  0  0  0  0  0  0  0  0  0
    5.5398   19.4439   21.5746 C   0  0  0  0  0  0  0  0  0  0  0  0
    5.5127   18.2893   21.9649 O   0  0  0  0  0  0  0  0  0  0  0  0
    6.7387   20.2526   23.0736 H   0  0  0  0  0  0  0  0  0  0  0  0
 13 14  1  0  0  0
 14  1  1  0  0  0
  1  2  1  0  0  0
  2  3  2  0  0  0
  3  4  1  0  0  0
  4  5  1  0  0  0
  4  6  1  0  0  0
  6  7  2  0  0  0
  7  8  1  0  0  0
  8  9  2  0  0  0
  9 10  1  0  0  0
  9 11  1  0  0  0
 11 12  2  0  0  0
 14 15  1  0  0  0
 15 16  1  0  0  0
 16 17  2  0  0  0
 16 18  1  0  0  0
 18 19  1  0  0  0
 19 20  1  0  0  0
 20 21  2  0  0  0
 12  2  1  0  0  0
 20 15  1  0  0  0
 12  6  1  0  0  0
 19 22  1  0  0  0
M  END
> <minimizedAffinity>
-9.57713

$$$$
OCNT-2308649


 30 32  0  0  0  0  0  0  0  0999 V2000
    1.0749   19.6895   18.6647 C   0  0  0  0  0  0  0  0  0  0  0  0
    0.6198   20.5110   19.4556 O   0  0  0  0  0  0  0  0  0  0  0  0
    2.4075   19.3414   18.6129 N   0  0  0  0  0  0  0  0  0  0  0  0
    2.7092   18.6800   17.9096 H   0  0  0  0  0  0  0  0  0  0  0  0
    0.2101   18.9613   17.6510 C   0  0  0  0  0  0  0  0  0  0  0  0
    0.2564   15.6811   19.5986 C   0  0  0  0  0  0  0  0  0  0  0  0
   -0.3629   14.8147   18.6989 C   0  0  0  0  0  0  0  0  0  0  0  0
   -0.7910   15.2870   17.4548 C   0  0  0  0  0  0  0  0  0  0  0  0
   -0.6013   16.6242   17.1026 C   0  0  0  0  0  0  0  0  0  0  0  0
    0.0206   17.5051   17.9954 C   0  0  0  0  0  0  0  0  0  0  0  0
    0.4431   17.0200   19.2416 C   0  0  0  0  0  0  0  0  0  0  0  0
    0.7289   15.3562   20.8375 O   0  0  0  0  0  0  0  0  0  0  0  0
    0.3631   14.0901   21.3668 C   0  0  0  0  0  0  0  0  0  0  0  0
   -1.3318   13.7722   24.7536 C   0  0  0  0  0  0  0  0  0  0  0  0
   -1.0022   13.6864   23.3505 N   0  0  0  0  0  0  0  0  0  0  0  0
    0.2162   14.1616   22.8916 C   0  0  0  0  0  0  0  0  0  0  0  0
    1.0893   14.5799   23.6477 O   0  0  0  0  0  0  0  0  0  0  0  0
   -1.7582   13.5462   22.6892 H   0  0  0  0  0  0  0  0  0  0  0  0
    3.3825   19.9074   19.5159 C   0  0  0  0  0  0  0  0  0  0  0  0
    3.8950   18.8940   20.5181 C   0  0  0  0  0  0  0  0  0  0  0  0
    3.1519   17.6981   20.6337 C   0  0  0  0  0  0  0  0  0  0  0  0
    3.5808   16.6406   21.4372 C   0  0  0  0  0  0  0  0  0  0  0  0
    4.7729   16.7468   22.1405 C   0  0  0  0  0  0  0  0  0  0  0  0
    5.5297   17.9145   22.0498 C   0  0  0  0  0  0  0  0  0  0  0  0
    5.0929   19.0011   21.2638 C   0  0  0  0  0  0  0  0  0  0  0  0
    5.9149   20.1604   21.2468 N   0  0  0  0  0  0  0  0  0  0  0  0
    6.7888   20.5610   22.2384 C   0  0  0  0  0  0  0  0  0  0  0  0
    7.4167   21.6865   21.7594 C   0  0  0  0  0  0  0  0  0  0  0  0
    6.9306   22.0241   20.5270 N   0  0  0  0  0  0  0  0  0  0  0  0
    5.9893   21.1385   20.2814 C   0  0  0  0  0  0  0  0  0  0  0  0
 14 15  1  0  0  0
 15 16  1  0  0  0
 16 17  2  0  0  0
 16 13  1  0  0  0
 13 12  1  0  0  0
 12  6  1  0  0  0
  6  7  1  0  0  0
  7  8  2  0  0  0
  8  9  1  0  0  0
  9 10  2  0  0  0
 10  5  1  0  0  0
  5  1  1  0  0  0
  1  2  2  0  0  0
  1  3  1  0  0  0
  3 19  1  0  0  0
 19 20  1  0  0  0
 20 21  2  0  0  0
 21 22  1  0  0  0
 22 23  2  0  0  0
 23 24  1  0  0  0
 24 25  2  0  0  0
 25 26  1  0  0  0
 26 27  1  0  0  0
 27 28  2  0  0  0
 28 29  1  0  0  0
 29 30  2  0  0  0
 10 11  1  0  0  0
 11  6  2  0  0  0
 25 20  1  0  0  0
 30 26  1  0  0  0
 15 18  1  0  0  0
  3  4  1  0  0  0
M  END
> <minimizedAffinity>
-9.17158

$$$$
OCNT-2308682


 29 33  0  0  0  0  0  0  0  0999 V2000
   -0.4597   14.4632   19.6177 O   0  0  0  0  0  0  0  0  0  0  0  0
    0.4821   15.1288   20.0414 C   0  0  0  0  0  0  0  0  0  0  0  0
    0.7251   16.4744   19.4909 C   0  0  0  0  0  0  0  0  0  0  0  0
   -0.1084   16.9528   18.4667 C   0  0  0  0  0  0  0  0  0  0  0  0
    0.1185   18.2076   17.9086 C   0  0  0  0  0  0  0  0  0  0  0  0
    1.1797   18.9804   18.3672 C   0  0  0  0  0  0  0  0  0  0  0  0
    2.0091   18.5048   19.3893 C   0  0  0  0  0  0  0  0  0  0  0  0
    1.7811   17.2485   19.9720 C   0  0  0  0  0  0  0  0  0  0  0  0
    2.6059   16.6616   21.0624 C   0  0  0  0  0  0  0  0  0  0  0  0
    2.3975   15.4580   21.5137 N   0  0  0  0  0  0  0  0  0  0  0  0
    1.3711   14.6955   21.0141 N   0  0  0  0  0  0  0  0  0  0  0  0
    3.6833   17.4003   21.6930 C   0  0  0  0  0  0  0  0  0  0  0  0
    4.7001   18.0213   21.1313 N   0  0  0  0  0  0  0  0  0  0  0  0
    5.3756   18.5379   22.2101 C   0  0  0  0  0  0  0  0  0  0  0  0
    4.8089   18.2836   23.3965 N   0  0  0  0  0  0  0  0  0  0  0  0
    3.6824   17.5303   23.0585 O   0  0  0  0  0  0  0  0  0  0  0  0
    6.6169   19.3337   22.0812 C   0  0  0  0  0  0  0  0  0  0  0  0
    6.3730   20.5199   21.2868 N   0  0  0  0  0  0  0  0  0  0  0  0
    7.2944   21.3609   20.7398 C   0  0  0  0  0  0  0  0  0  0  0  0
    6.6803   22.3572   20.1449 N   0  0  0  0  0  0  0  0  0  0  0  0
    5.3613   22.0857   20.3701 C   0  0  0  0  0  0  0  0  0  0  0  0
    5.1204   20.9775   21.0761 N   0  0  0  0  0  0  0  0  0  0  0  0
    1.1655   13.3943   21.6470 C   0  0  0  0  0  0  0  0  0  0  0  0
    0.1151   13.4503   22.7325 C   0  0  0  0  0  0  0  0  0  0  0  0
   -0.0936   14.6298   23.4617 C   0  0  0  0  0  0  0  0  0  0  0  0
   -1.0526   14.6754   24.4747 C   0  0  0  0  0  0  0  0  0  0  0  0
   -1.8068   13.5421   24.7735 C   0  0  0  0  0  0  0  0  0  0  0  0
   -1.5996   12.3605   24.0641 C   0  0  0  0  0  0  0  0  0  0  0  0
   -0.6408   12.3128   23.0510 C   0  0  0  0  0  0  0  0  0  0  0  0
  1  2  2  0  0  0
  2  3  1  0  0  0
  3  4  2  0  0  0
  4  5  1  0  0  0
  5  6  2  0  0  0
  6  7  1  0  0  0
  7  8  2  0  0  0
  8  9  1  0  0  0
  9 12  1  0  0  0
 12 13  2  0  0  0
 13 14  1  0  0  0
 14 17  1  0  0  0
 17 18  1  0  0  0
 18 19  1  0  0  0
 19 20  2  0  0  0
 20 21  1  0  0  0
 21 22  2  0  0  0
 14 15  2  0  0  0
 15 16  1  0  0  0
  9 10  2  0  0  0
 10 11  1  0  0  0
 11 23  1  0  0  0
 23 24  1  0  0  0
 24 25  2  0  0  0
 25 26  1  0  0  0
 26 27  2  0  0  0
 27 28  1  0  0  0
 28 29  2  0  0  0
 11  2  1  0  0  0
 29 24  1  0  0  0
  8  3  1  0  0  0
 16 12  1  0  0  0
 22 18  1  0  0  0
M  END
> <minimizedAffinity>
-9.09986

$$$$
OCNT-2308693


 23 25  0  0  0  0  0  0  0  0999 V2000
    4.8426   18.5780   21.3496 C   0  0  0  0  0  0  0  0  0  0  0  0
    4.1263   18.5075   22.4597 N   0  0  0  0  0  0  0  0  0  0  0  0
    3.6459   17.2394   22.7139 N   0  0  0  0  0  0  0  0  0  0  0  0
    4.0233   16.3860   21.7903 C   0  0  0  0  0  0  0  0  0  0  0  0
    4.9548   17.0726   20.5375 S   0  0  0  0  0  0  0  0  0  0  0  0
    6.9322   21.7241   21.0780 C   0  0  0  0  0  0  0  0  0  0  0  0
    6.5663   20.3209   21.5157 C   0  0  0  0  0  0  0  0  0  0  0  0
    7.2700   19.7925   22.3765 O   0  0  0  0  0  0  0  0  0  0  0  0
    5.4495   19.7573   20.8833 N   0  0  0  0  0  0  0  0  0  0  0  0
    4.7513   20.4394   19.8027 C   0  0  0  0  0  0  0  0  0  0  0  0
    3.6686   21.4690   20.0523 C   0  0  0  0  0  0  0  0  0  0  0  0
    3.3037   20.1439   19.4716 C   0  0  0  0  0  0  0  0  0  0  0  0
    3.5908   14.6930   21.8361 S   0  0  0  0  0  0  0  0  0  0  0  0
    2.0262   14.7664   22.7734 C   0  0  0  0  0  0  0  0  0  0  0  0
    0.8047   14.4445   21.9100 C   0  0  0  0  0  0  0  0  0  0  0  0
    1.1778   14.4605   20.5325 O   0  0  0  0  0  0  0  0  0  0  0  0
    0.7006   15.4750   19.7544 C   0  0  0  0  0  0  0  0  0  0  0  0
   -0.2641   15.0820   18.8210 C   0  0  0  0  0  0  0  0  0  0  0  0
   -0.8478   16.0178   17.9642 C   0  0  0  0  0  0  0  0  0  0  0  0
   -0.4611   17.3532   18.0398 C   0  0  0  0  0  0  0  0  0  0  0  0
   -1.1739   18.5124   16.9877 Cl  0  0  0  0  0  0  0  0  0  0  0  0
    0.5026   17.7558   18.9628 C   0  0  0  0  0  0  0  0  0  0  0  0
    1.0857   16.8155   19.8209 C   0  0  0  0  0  0  0  0  0  0  0  0
  6  7  1  0  0  0
  7  8  2  0  0  0
  7  9  1  0  0  0
  9  1  1  0  0  0
  1  2  2  0  0  0
  2  3  1  0  0  0
  3  4  2  0  0  0
  4 13  1  0  0  0
 13 14  1  0  0  0
 14 15  1  0  0  0
 15 16  1  0  0  0
 16 17  1  0  0  0
 17 18  1  0  0  0
 18 19  2  0  0  0
 19 20  1  0  0  0
 20 21  1  0  0  0
 20 22  2  0  0  0
 22 23  1  0  0  0
  4  5  1  0  0  0
  9 10  1  0  0  0
 10 11  1  0  0  0
 11 12  1  0  0  0
  5  1  1  0  0  0
 12 10  1  0  0  0
 23 17  2  0  0  0
M  END
> <minimizedAffinity>
-7.81398

$$$$
OCNT-2308707


 25 29  0  0  0  0  0  0  0  0999 V2000
    1.9084   21.5291   19.7241 O   0  0  0  0  0  0  0  0  0  0  0  0
    2.2350   20.3622   19.5185 C   0  0  0  0  0  0  0  0  0  0  0  0
    3.5613   19.9665   19.4969 N   0  0  0  0  0  0  0  0  0  0  0  0
    3.7871   18.9863   19.4406 H   0  0  0  0  0  0  0  0  0  0  0  0
    1.2556   19.2756   19.2941 C   0  0  0  0  0  0  0  0  0  0  0  0
   -0.0616   19.5323   19.1705 N   0  0  0  0  0  0  0  0  0  0  0  0
   -0.6281   18.3330   18.9782 N   0  0  0  0  0  0  0  0  0  0  0  0
    0.2569   17.2965   18.9740 C   0  0  0  0  0  0  0  0  0  0  0  0
    1.4906   17.8749   19.1735 C   0  0  0  0  0  0  0  0  0  0  0  0
   -1.6337   18.2978   18.8557 H   0  0  0  0  0  0  0  0  0  0  0  0
   -0.0949   15.9267   18.7904 C   0  0  0  0  0  0  0  0  0  0  0  0
    0.0917   14.8417   19.6322 C   0  0  0  0  0  0  0  0  0  0  0  0
   -0.4381   13.7033   18.9753 C   0  0  0  0  0  0  0  0  0  0  0  0
   -0.9186   14.1520   17.7709 C   0  0  0  0  0  0  0  0  0  0  0  0
   -0.7170   15.4870   17.6494 O   0  0  0  0  0  0  0  0  0  0  0  0
    4.6395   20.8856   19.7806 C   0  0  0  0  0  0  0  0  0  0  0  0
    5.2804   20.6617   21.1290 C   0  0  0  0  0  0  0  0  0  0  0  0
    5.3848   21.7848   22.1599 C   0  0  0  0  0  0  0  0  0  0  0  0
    6.6204   21.2802   21.4623 C   0  0  0  0  0  0  0  0  0  0  0  0
    7.4882   20.2257   22.0778 C   0  0  0  0  0  0  0  0  0  0  0  0
    6.6490   19.0798   22.3245 O   0  0  0  0  0  0  0  0  0  0  0  0
    5.3724   19.1935   21.6113 C   0  0  0  0  0  0  0  0  0  0  0  0
    5.1264   18.0074   20.6202 C   0  0  0  0  0  0  0  0  0  0  0  0
    4.4348   17.2621   21.7758 C   0  0  0  0  0  0  0  0  0  0  0  0
    4.1541   18.6343   22.4125 C   0  0  0  0  0  0  0  0  0  0  0  0
  1  2  2  0  0  0
  2  3  1  0  0  0
  3 16  1  0  0  0
 17 16  1  0  0  0
 17 18  1  0  0  0
 18 19  1  0  0  0
 19 20  1  0  0  0
 20 21  1  0  0  0
 21 22  1  0  0  0
 22 23  1  0  0  0
 23 24  1  0  0  0
 24 25  1  0  0  0
  2  5  1  0  0  0
  5  6  2  0  0  0
  6  7  1  0  0  0
  7  8  1  0  0  0
  8 11  1  0  0  0
 11 12  2  0  0  0
 12 13  1  0  0  0
 13 14  2  0  0  0
 14 15  1  0  0  0
  8  9  2  0  0  0
 19 17  1  0  0  0
 25 22  1  0  0  0
  9  5  1  0  0  0
 22 17  1  0  0  0
 15 11  1  0  0  0
  3  4  1  0  0  0
  7 10  1  0  0  0
M  END
> <minimizedAffinity>
-8.43074

$$$$
OCNT-2308723


 26 29  0  0  0  0  0  0  0  0999 V2000
    3.1041   14.1140   21.6227 C   0  0  0  0  0  0  0  0  0  0  0  0
    2.3495   15.4338   21.7987 C   0  0  0  0  0  0  0  0  0  0  0  0
    2.8646   16.4696   20.8944 N   0  0  0  0  0  0  0  0  0  0  0  0
    2.1618   16.8867   20.2852 H   0  0  0  0  0  0  0  0  0  0  0  0
    3.7264   17.4616   21.3554 C   0  0  0  0  0  0  0  0  0  0  0  0
    4.4608   17.3001   22.4861 N   0  0  0  0  0  0  0  0  0  0  0  0
    5.2951   18.2904   22.8727 C   0  0  0  0  0  0  0  0  0  0  0  0
    5.5160   19.4799   22.2794 N   0  0  0  0  0  0  0  0  0  0  0  0
    4.7686   19.5994   21.1710 C   0  0  0  0  0  0  0  0  0  0  0  0
    3.8785   18.6742   20.6516 C   0  0  0  0  0  0  0  0  0  0  0  0
    3.2831   19.1586   19.5005 N   0  0  0  0  0  0  0  0  0  0  0  0
    3.8155   20.3506   19.3243 C   0  0  0  0  0  0  0  0  0  0  0  0
    4.7157   20.6565   20.3073 N   0  0  0  0  0  0  0  0  0  0  0  0
    5.4773   21.8711   20.4242 C   0  0  0  0  0  0  0  0  0  0  0  0
    0.8161   15.2857   21.7121 C   0  0  0  0  0  0  0  0  0  0  0  0
    0.2992   15.2858   20.3004 C   0  0  0  0  0  0  0  0  0  0  0  0
   -0.1004   14.1778   19.5780 C   0  0  0  0  0  0  0  0  0  0  0  0
   -0.5071   14.5918   18.3391 N   0  0  0  0  0  0  0  0  0  0  0  0
   -0.9982   13.7149   17.2995 C   0  0  0  0  0  0  0  0  0  0  0  0
   -0.3859   15.9604   18.2274 C   0  0  0  0  0  0  0  0  0  0  0  0
   -0.6758   16.8267   17.1590 C   0  0  0  0  0  0  0  0  0  0  0  0
   -0.4502   18.1926   17.3456 C   0  0  0  0  0  0  0  0  0  0  0  0
    0.0438   18.6650   18.5529 C   0  0  0  0  0  0  0  0  0  0  0  0
    0.2507   19.9807   18.7043 F   0  0  0  0  0  0  0  0  0  0  0  0
    0.3312   17.8065   19.6122 C   0  0  0  0  0  0  0  0  0  0  0  0
    0.1143   16.4229   19.4499 C   0  0  0  0  0  0  0  0  0  0  0  0
  1  2  1  0  0  0
  2 15  1  0  0  0
 15 16  1  0  0  0
 16 17  2  0  0  0
 17 18  1  0  0  0
 18 19  1  0  0  0
 18 20  1  0  0  0
 20 21  2  0  0  0
 21 22  1  0  0  0
 22 23  2  0  0  0
 23 24  1  0  0  0
 23 25  1  0  0  0
 25 26  2  0  0  0
  2  3  1  0  0  0
  3  5  1  0  0  0
  5  6  1  0  0  0
  6  7  2  0  0  0
  7  8  1  0  0  0
  8  9  2  0  0  0
  9 10  1  0  0  0
 10 11  1  0  0  0
 11 12  2  0  0  0
 12 13  1  0  0  0
 13 14  1  0  0  0
 26 16  1  0  0  0
 10  5  2  0  0  0
 26 20  1  0  0  0
 13  9  1  0  0  0
  3  4  1  0  0  0
M  END
> <minimizedAffinity>
-9.02681

$$$$
OCNT-2308740


 26 29  0  0  0  0  0  0  0  0999 V2000
   -2.0174   18.0637   16.9944 O   0  0  0  0  0  0  0  0  0  0  0  0
   -0.6678   18.0091   17.4479 C   0  0  0  0  0  0  0  0  0  0  0  0
   -0.0957   19.4213   17.5718 C   0  0  0  0  0  0  0  0  0  0  0  0
    0.9362   19.2887   18.6883 C   0  0  0  0  0  0  0  0  0  0  0  0
    0.1969   18.4207   19.7079 C   0  0  0  0  0  0  0  0  0  0  0  0
   -0.5518   17.3750   18.8624 C   0  0  0  0  0  0  0  0  0  0  0  0
   -2.3301   17.1386   16.9672 H   0  0  0  0  0  0  0  0  0  0  0  0
    0.2059   16.1282   18.7597 N   0  0  0  0  0  0  0  0  0  0  0  0
    0.9100   16.1027   18.0266 H   0  0  0  0  0  0  0  0  0  0  0  0
    0.8420   15.7013   19.9141 C   0  0  0  0  0  0  0  0  0  0  0  0
    0.3509   14.6801   20.6272 N   0  0  0  0  0  0  0  0  0  0  0  0
    1.0282   14.3221   21.7349 C   0  0  0  0  0  0  0  0  0  0  0  0
    2.1671   14.9540   22.1640 C   0  0  0  0  0  0  0  0  0  0  0  0
    2.5888   16.0040   21.3751 C   0  0  0  0  0  0  0  0  0  0  0  0
    1.9404   16.3859   20.2461 N   0  0  0  0  0  0  0  0  0  0  0  0
    3.7461   16.7384   21.7660 N   0  0  0  0  0  0  0  0  0  0  0  0
    5.0359   16.5188   21.3291 C   0  0  0  0  0  0  0  0  0  0  0  0
    5.8329   17.4634   21.9332 C   0  0  0  0  0  0  0  0  0  0  0  0
    4.9490   18.2162   22.7242 C   0  0  0  0  0  0  0  0  0  0  0  0
    3.6875   17.7882   22.6359 N   0  0  0  0  0  0  0  0  0  0  0  0
    1.3868   20.6242   19.2713 C   0  0  0  0  0  0  0  0  0  0  0  0
    2.8118   20.6594   19.5467 N   0  0  0  0  0  0  0  0  0  0  0  0
    3.6958   19.6247   19.4392 C   0  0  0  0  0  0  0  0  0  0  0  0
    4.9175   20.1275   19.8209 C   0  0  0  0  0  0  0  0  0  0  0  0
    4.6652   21.4753   20.1391 C   0  0  0  0  0  0  0  0  0  0  0  0
    3.3800   21.8004   19.9792 N   0  0  0  0  0  0  0  0  0  0  0  0
  1  2  1  0  0  0
  2  3  1  0  0  0
  3  4  1  0  0  0
  4 21  1  0  0  0
 21 22  1  0  0  0
 22 23  1  0  0  0
 23 24  2  0  0  0
 24 25  1  0  0  0
 25 26  2  0  0  0
  4  5  1  0  0  0
  5  6  1  0  0  0
  6  8  1  0  0  0
  8 10  1  0  0  0
 10 11  2  0  0  0
 11 12  1  0  0  0
 12 13  2  0  0  0
 13 14  1  0  0  0
 14 16  1  0  0  0
 16 17  1  0  0  0
 17 18  2  0  0  0
 18 19  1  0  0  0
 19 20  2  0  0  0
 14 15  2  0  0  0
  6  2  1  0  0  0
 15 10  1  0  0  0
 26 22  1  0  0  0
 20 16  1  0  0  0
  1  7  1  0  0  0
  8  9  1  0  0  0
M  END
> <minimizedAffinity>
-8.59752

$$$$
OCNT-2308747


 23 26  0  0  0  0  0  0  0  0999 V2000
   -1.2449   14.4831   17.4764 C   0  0  0  0  0  0  0  0  0  0  0  0
   -0.3566   14.8960   18.6022 C   0  0  0  0  0  0  0  0  0  0  0  0
   -0.0593   14.1092   19.7000 C   0  0  0  0  0  0  0  0  0  0  0  0
    0.9884   14.8828   20.8091 S   0  0  0  0  0  0  0  0  0  0  0  0
    1.0688   16.2879   19.8480 C   0  0  0  0  0  0  0  0  0  0  0  0
    0.3105   16.1650   18.7015 C   0  0  0  0  0  0  0  0  0  0  0  0
    0.2919   17.2953   17.7943 C   0  0  0  0  0  0  0  0  0  0  0  0
   -0.3526   17.3363   16.7516 O   0  0  0  0  0  0  0  0  0  0  0  0
    1.0738   18.3496   18.2063 N   0  0  0  0  0  0  0  0  0  0  0  0
    1.7771   18.3623   19.3949 C   0  0  0  0  0  0  0  0  0  0  0  0
    1.8091   17.3636   20.2251 N   0  0  0  0  0  0  0  0  0  0  0  0
    1.0359   19.1713   17.6203 H   0  0  0  0  0  0  0  0  0  0  0  0
    2.5760   19.6192   19.6837 C   0  0  0  0  0  0  0  0  0  0  0  0
    3.7937   19.3349   20.5043 C   0  0  0  0  0  0  0  0  0  0  0  0
    4.0589   18.1670   21.2008 C   0  0  0  0  0  0  0  0  0  0  0  0
    5.2666   18.3058   21.8344 N   0  0  0  0  0  0  0  0  0  0  0  0
    5.7906   19.5382   21.5655 C   0  0  0  0  0  0  0  0  0  0  0  0
    6.9643   19.9846   22.0471 N   0  0  0  0  0  0  0  0  0  0  0  0
    7.2628   21.2353   21.6300 C   0  0  0  0  0  0  0  0  0  0  0  0
    6.4767   22.0190   20.7953 C   0  0  0  0  0  0  0  0  0  0  0  0
    5.2658   21.5069   20.3259 C   0  0  0  0  0  0  0  0  0  0  0  0
    4.9047   20.2095   20.7295 C   0  0  0  0  0  0  0  0  0  0  0  0
    5.7234   17.6204   22.4183 H   0  0  0  0  0  0  0  0  0  0  0  0
  1  2  1  0  0  0
  2  3  2  0  0  0
  3  4  1  0  0  0
  4  5  1  0  0  0
  5  6  2  0  0  0
  6  7  1  0  0  0
  7  8  2  0  0  0
  7  9  1  0  0  0
  9 10  1  0  0  0
 10 13  1  0  0  0
 13 14  1  0  0  0
 14 15  2  0  0  0
 15 16  1  0  0  0
 16 17  1  0  0  0
 17 18  1  0  0  0
 18 19  2  0  0  0
 19 20  1  0  0  0
 20 21  2  0  0  0
 21 22  1  0  0  0
 10 11  2  0  0  0
  6  2  1  0  0  0
 22 14  1  0  0  0
 11  5  1  0  0  0
 22 17  2  0  0  0
  9 12  1  0  0  0
 16 23  1  0  0  0
M  END
> <minimizedAffinity>
-9.98294

$$$$
OCNT-2308748


 27 29  0  0  0  0  0  0  0  0999 V2000
    2.7697   17.6375   20.7939 C   0  0  0  0  0  0  0  0  0  0  0  0
    2.0152   18.4273   20.2082 O   0  0  0  0  0  0  0  0  0  0  0  0
    2.3489   16.3162   21.0081 N   0  0  0  0  0  0  0  0  0  0  0  0
    2.8068   15.4931   22.1471 C   0  0  0  0  0  0  0  0  0  0  0  0
    2.5427   13.9868   21.9437 C   0  0  0  0  0  0  0  0  0  0  0  0
    1.1431   13.7426   21.5722 N   0  0  0  0  0  0  0  0  0  0  0  0
    0.7368   14.4879   20.3722 C   0  0  0  0  0  0  0  0  0  0  0  0
    0.9797   15.9984   20.5496 C   0  0  0  0  0  0  0  0  0  0  0  0
    0.2385   13.7902   22.6331 C   0  0  0  0  0  0  0  0  0  0  0  0
    0.2724   14.8422   23.4661 N   0  0  0  0  0  0  0  0  0  0  0  0
   -0.5861   14.8475   24.5003 C   0  0  0  0  0  0  0  0  0  0  0  0
   -1.4917   13.8469   24.7413 C   0  0  0  0  0  0  0  0  0  0  0  0
   -1.4860   12.8052   23.8402 C   0  0  0  0  0  0  0  0  0  0  0  0
   -0.6262   12.7740   22.7976 N   0  0  0  0  0  0  0  0  0  0  0  0
   -2.4210   11.6204   23.9721 C   0  0  0  0  0  0  0  0  0  0  0  0
   -3.8262   12.0758   24.3659 C   0  0  0  0  0  0  0  0  0  0  0  0
   -2.4583   10.7589   22.7076 C   0  0  0  0  0  0  0  0  0  0  0  0
    4.2228   18.1075   21.2367 C   0  0  0  0  0  0  0  0  0  0  0  0
    4.3847   17.8713   22.7542 C   0  0  0  0  0  0  0  0  0  0  0  0
    4.4985   19.5496   20.7764 C   0  0  0  0  0  0  0  0  0  0  0  0
    5.5811   20.2582   21.3365 C   0  0  0  0  0  0  0  0  0  0  0  0
    5.8685   21.5681   20.9478 C   0  0  0  0  0  0  0  0  0  0  0  0
    5.0697   22.2051   20.0039 C   0  0  0  0  0  0  0  0  0  0  0  0
    3.9771   21.5370   19.4586 C   0  0  0  0  0  0  0  0  0  0  0  0
    3.6866   20.2258   19.8483 C   0  0  0  0  0  0  0  0  0  0  0  0
    6.0376   16.4687   21.2944 C   0  0  0  0  0  0  0  0  0  0  0  0
    5.2595   17.3821   20.5359 O   0  0  0  0  0  0  0  0  0  0  0  0
 26 27  1  0  0  0
 27 18  1  0  0  0
 18 19  1  0  0  0
 18  1  1  0  0  0
  1  2  2  0  0  0
  1  3  1  0  0  0
  3  4  1  0  0  0
  4  5  1  0  0  0
  5  6  1  0  0  0
  6  9  1  0  0  0
  9 10  2  0  0  0
 10 11  1  0  0  0
 11 12  2  0  0  0
 12 13  1  0  0  0
 13 15  1  0  0  0
 15 16  1  0  0  0
 15 17  1  0  0  0
 13 14  2  0  0  0
  6  7  1  0  0  0
  7  8  1  0  0  0
 18 20  1  0  0  0
 20 21  2  0  0  0
 21 22  1  0  0  0
 22 23  2  0  0  0
 23 24  1  0  0  0
 24 25  2  0  0  0
  8  3  1  0  0  0
 25 20  1  0  0  0
 14  9  1  0  0  0
M  END
> <minimizedAffinity>
-3.57828

$$$$
OCNT-2308758


 30 33  0  0  0  0  0  0  0  0999 V2000
    1.7656   16.2145   21.2652 O   0  0  0  0  0  0  0  0  0  0  0  0
    2.5530   15.3139   21.5219 C   0  0  0  0  0  0  0  0  0  0  0  0
    3.8974   15.4492   21.7947 N   0  0  0  0  0  0  0  0  0  0  0  0
    2.1772   13.9875   21.5958 N   0  0  0  0  0  0  0  0  0  0  0  0
    4.3715   14.6386   22.1614 H   0  0  0  0  0  0  0  0  0  0  0  0
    2.8614   13.3555   21.1962 H   0  0  0  0  0  0  0  0  0  0  0  0
    4.6043   16.6357   21.7766 C   0  0  0  0  0  0  0  0  0  0  0  0
    4.3558   17.7755   21.0545 C   0  0  0  0  0  0  0  0  0  0  0  0
    5.3342   18.6919   21.3769 N   0  0  0  0  0  0  0  0  0  0  0  0
    6.2223   18.1682   22.2671 N   0  0  0  0  0  0  0  0  0  0  0  0
    5.7695   16.9381   22.5039 C   0  0  0  0  0  0  0  0  0  0  0  0
    5.4835   20.0237   20.8982 C   0  0  0  0  0  0  0  0  0  0  0  0
    4.4191   20.7017   20.2867 C   0  0  0  0  0  0  0  0  0  0  0  0
    4.5924   22.0157   19.8348 C   0  0  0  0  0  0  0  0  0  0  0  0
    5.8222   22.6565   19.9894 C   0  0  0  0  0  0  0  0  0  0  0  0
    6.8849   21.9862   20.5922 C   0  0  0  0  0  0  0  0  0  0  0  0
    6.7180   20.6755   21.0455 C   0  0  0  0  0  0  0  0  0  0  0  0
    0.8097   13.6159   21.2634 C   0  0  0  0  0  0  0  0  0  0  0  0
    0.2532   14.4307   20.1032 C   0  0  0  0  0  0  0  0  0  0  0  0
   -0.2049   13.7751   18.9478 C   0  0  0  0  0  0  0  0  0  0  0  0
   -0.7564   14.5016   17.8921 C   0  0  0  0  0  0  0  0  0  0  0  0
   -0.8575   15.8876   17.9756 C   0  0  0  0  0  0  0  0  0  0  0  0
   -0.4091   16.5520   19.1151 C   0  0  0  0  0  0  0  0  0  0  0  0
    0.1407   15.8284   20.1741 C   0  0  0  0  0  0  0  0  0  0  0  0
   -0.0051   13.7661   22.5176 C   0  0  0  0  0  0  0  0  0  0  0  0
   -0.9222   12.9287   22.9699 N   0  0  0  0  0  0  0  0  0  0  0  0
   -1.4285   13.4418   24.1392 N   0  0  0  0  0  0  0  0  0  0  0  0
   -0.8164   14.5788   24.3742 C   0  0  0  0  0  0  0  0  0  0  0  0
    0.0820   14.8269   23.3839 N   0  0  0  0  0  0  0  0  0  0  0  0
    0.6989   15.6247   23.3048 H   0  0  0  0  0  0  0  0  0  0  0  0
  1  2  2  0  0  0
  2  3  1  0  0  0
  3  7  1  0  0  0
  7  8  2  0  0  0
  8  9  1  0  0  0
  9 12  1  0  0  0
 12 13  2  0  0  0
 13 14  1  0  0  0
 14 15  2  0  0  0
 15 16  1  0  0  0
 16 17  2  0  0  0
  9 10  1  0  0  0
 10 11  2  0  0  0
  2  4  1  0  0  0
  4 18  1  0  0  0
 18 19  1  0  0  0
 19 20  2  0  0  0
 20 21  1  0  0  0
 21 22  2  0  0  0
 22 23  1  0  0  0
 23 24  2  0  0  0
 18 25  1  0  0  0
 25 26  2  0  0  0
 26 27  1  0  0  0
 27 28  2  0  0  0
 28 29  1  0  0  0
 11  7  1  0  0  0
 24 19  1  0  0  0
 29 25  1  0  0  0
 17 12  1  0  0  0
  3  5  1  0  0  0
  4  6  1  0  0  0
 29 30  1  0  0  0
M  END
> <minimizedAffinity>
-7.42775

$$$$
OCNT-2308762


 31 34  0  0  0  0  0  0  0  0999 V2000
    3.8351   17.4059   21.5959 C   0  0  0  0  0  0  0  0  0  0  0  0
    3.6328   18.4158   22.5392 C   0  0  0  0  0  0  0  0  0  0  0  0
    4.7175   19.0011   23.2121 C   0  0  0  0  0  0  0  0  0  0  0  0
    6.0201   18.5842   22.9440 C   0  0  0  0  0  0  0  0  0  0  0  0
    6.2117   17.5683   22.0054 C   0  0  0  0  0  0  0  0  0  0  0  0
    7.4516   17.1398   21.7223 F   0  0  0  0  0  0  0  0  0  0  0  0
    5.1399   16.9816   21.3357 C   0  0  0  0  0  0  0  0  0  0  0  0
    2.0633   15.6665   21.2267 C   0  0  0  0  0  0  0  0  0  0  0  0
    2.1967   15.0089   22.2520 O   0  0  0  0  0  0  0  0  0  0  0  0
    2.8021   16.7799   20.8751 N   0  0  0  0  0  0  0  0  0  0  0  0
    2.5530   17.1964   19.9786 H   0  0  0  0  0  0  0  0  0  0  0  0
    0.3023   19.2281   17.3808 C   0  0  0  0  0  0  0  0  0  0  0  0
    0.0715   17.8054   17.8262 C   0  0  0  0  0  0  0  0  0  0  0  0
    0.7574   17.3663   18.8459 N   0  0  0  0  0  0  0  0  0  0  0  0
    0.5177   16.0694   19.2299 C   0  0  0  0  0  0  0  0  0  0  0  0
    1.0548   15.2990   20.2453 C   0  0  0  0  0  0  0  0  0  0  0  0
    0.4016   14.0557   20.1179 C   0  0  0  0  0  0  0  0  0  0  0  0
   -0.4799   14.0227   19.1169 N   0  0  0  0  0  0  0  0  0  0  0  0
   -0.4119   15.2591   18.5714 N   0  0  0  0  0  0  0  0  0  0  0  0
   -1.1318   15.7512   17.4900 C   0  0  0  0  0  0  0  0  0  0  0  0
   -0.9418   17.0069   17.0637 C   0  0  0  0  0  0  0  0  0  0  0  0
    7.1536   19.0763   23.5286 O   0  0  0  0  0  0  0  0  0  0  0  0
    7.3016   20.4947   23.5792 C   0  0  0  0  0  0  0  0  0  0  0  0
    6.9653   21.1048   22.2343 C   0  0  0  0  0  0  0  0  0  0  0  0
    7.9686   21.4956   21.3343 C   0  0  0  0  0  0  0  0  0  0  0  0
    7.6415   22.0220   20.0833 C   0  0  0  0  0  0  0  0  0  0  0  0
    6.3051   22.1528   19.7083 C   0  0  0  0  0  0  0  0  0  0  0  0
    5.2923   21.7539   20.5846 C   0  0  0  0  0  0  0  0  0  0  0  0
    5.6230   21.2283   21.8404 C   0  0  0  0  0  0  0  0  0  0  0  0
    3.9166   21.8743   20.1978 C   0  0  0  0  0  0  0  0  0  0  0  0
    2.8056   21.9729   19.8757 N   0  0  0  0  0  0  0  0  0  0  0  0
 12 13  1  0  0  0
 13 14  2  0  0  0
 14 15  1  0  0  0
 15 16  2  0  0  0
 16  8  1  0  0  0
  8  9  2  0  0  0
  8 10  1  0  0  0
 10  1  1  0  0  0
  1  2  1  0  0  0
  2  3  2  0  0  0
  3  4  1  0  0  0
  4 22  1  0  0  0
 22 23  1  0  0  0
 23 24  1  0  0  0
 24 25  2  0  0  0
 25 26  1  0  0  0
 26 27  2  0  0  0
 27 28  1  0  0  0
 28 30  1  0  0  0
 30 31  3  0  0  0
 28 29  2  0  0  0
  4  5  2  0  0  0
  5  6  1  0  0  0
  5  7  1  0  0  0
 16 17  1  0  0  0
 17 18  2  0  0  0
 18 19  1  0  0  0
 19 20  1  0  0  0
 20 21  2  0  0  0
 21 13  1  0  0  0
 19 15  1  0  0  0
  7  1  2  0  0  0
 29 24  1  0  0  0
 10 11  1  0  0  0
M  END
> <minimizedAffinity>
-3.74141

$$$$
OCNT-2308765


 26 29  0  0  0  0  0  0  0  0999 V2000
    2.8523   18.1953   19.4515 O   0  0  0  0  0  0  0  0  0  0  0  0
    2.7301   19.4187   19.5018 C   0  0  0  0  0  0  0  0  0  0  0  0
    1.5163   20.0174   19.1968 N   0  0  0  0  0  0  0  0  0  0  0  0
    1.3550   20.9469   19.5641 H   0  0  0  0  0  0  0  0  0  0  0  0
    3.7736   20.3131   19.9334 C   0  0  0  0  0  0  0  0  0  0  0  0
    4.8920   20.2182   20.7244 C   0  0  0  0  0  0  0  0  0  0  0  0
    5.3346   19.1108   21.4498 C   0  0  0  0  0  0  0  0  0  0  0  0
    6.5264   19.3937   22.1497 C   0  0  0  0  0  0  0  0  0  0  0  0
    7.1871   20.6598   22.1200 C   0  0  0  0  0  0  0  0  0  0  0  0
    6.7098   21.7698   21.3909 C   0  0  0  0  0  0  0  0  0  0  0  0
    5.5211   21.5188   20.6850 C   0  0  0  0  0  0  0  0  0  0  0  0
    4.7884   22.3367   19.9153 N   0  0  0  0  0  0  0  0  0  0  0  0
    3.7026   21.6013   19.4779 O   0  0  0  0  0  0  0  0  0  0  0  0
    0.3617   19.2011   18.8482 C   0  0  0  0  0  0  0  0  0  0  0  0
    0.2575   17.9392   19.7167 C   0  0  0  0  0  0  0  0  0  0  0  0
    0.4827   16.7629   18.7598 C   0  0  0  0  0  0  0  0  0  0  0  0
   -0.1008   17.2759   17.4444 C   0  0  0  0  0  0  0  0  0  0  0  0
    0.4196   18.7040   17.3856 C   0  0  0  0  0  0  0  0  0  0  0  0
   -0.3790   19.4997   16.5267 O   0  0  0  0  0  0  0  0  0  0  0  0
   -0.0925   20.4298   16.6645 H   0  0  0  0  0  0  0  0  0  0  0  0
   -0.1619   15.4704   19.2569 C   0  0  0  0  0  0  0  0  0  0  0  0
    0.4701   14.9590   20.4589 N   0  0  0  0  0  0  0  0  0  0  0  0
    1.7533   15.1759   20.8690 C   0  0  0  0  0  0  0  0  0  0  0  0
    1.8921   14.4939   22.0550 C   0  0  0  0  0  0  0  0  0  0  0  0
    0.6375   13.8957   22.2712 C   0  0  0  0  0  0  0  0  0  0  0  0
   -0.2337   14.1755   21.2983 N   0  0  0  0  0  0  0  0  0  0  0  0
  1  2  2  0  0  0
  2  3  1  0  0  0
  3 14  1  0  0  0
 14 15  1  0  0  0
 15 16  1  0  0  0
 16 21  1  0  0  0
 21 22  1  0  0  0
 22 23  1  0  0  0
 23 24  2  0  0  0
 24 25  1  0  0  0
 25 26  2  0  0  0
 16 17  1  0  0  0
 17 18  1  0  0  0
 18 19  1  0  0  0
  2  5  1  0  0  0
  5  6  2  0  0  0
  6  7  1  0  0  0
  7  8  2  0  0  0
  8  9  1  0  0  0
  9 10  2  0  0  0
 10 11  1  0  0  0
 11 12  2  0  0  0
 12 13  1  0  0  0
 18 14  1  0  0  0
 13  5  1  0  0  0
 26 22  1  0  0  0
 11  6  1  0  0  0
  3  4  1  0  0  0
 19 20  1  0  0  0
M  END
> <minimizedAffinity>
-10.15194

$$$$
OCNT-2308768


 23 26  0  0  0  0  0  0  0  0999 V2000
    3.1483   17.4702   21.3211 C   0  0  0  0  0  0  0  0  0  0  0  0
    4.0540   17.6540   22.2566 N   0  0  0  0  0  0  0  0  0  0  0  0
    4.8323   18.6768   21.7990 C   0  0  0  0  0  0  0  0  0  0  0  0
    6.0014   19.2018   22.3737 C   0  0  0  0  0  0  0  0  0  0  0  0
    6.6608   20.2548   21.7360 C   0  0  0  0  0  0  0  0  0  0  0  0
    6.1581   20.7843   20.5513 C   0  0  0  0  0  0  0  0  0  0  0  0
    4.9864   20.2820   19.9702 C   0  0  0  0  0  0  0  0  0  0  0  0
    4.3382   19.2085   20.6064 C   0  0  0  0  0  0  0  0  0  0  0  0
    3.1476   18.5090   20.3846 N   0  0  0  0  0  0  0  0  0  0  0  0
    2.0865   18.8816   19.4956 C   0  0  0  0  0  0  0  0  0  0  0  0
    1.5466   17.9484   18.6951 N   0  0  0  0  0  0  0  0  0  0  0  0
    0.5703   18.6077   18.0465 N   0  0  0  0  0  0  0  0  0  0  0  0
   -0.2351   17.9197   17.0676 C   0  0  0  0  0  0  0  0  0  0  0  0
    0.4537   19.9125   18.4216 C   0  0  0  0  0  0  0  0  0  0  0  0
    1.4265   20.1221   19.3720 C   0  0  0  0  0  0  0  0  0  0  0  0
    2.8924   15.1005   21.6116 C   0  0  0  0  0  0  0  0  0  0  0  0
    4.0671   14.8148   21.7980 O   0  0  0  0  0  0  0  0  0  0  0  0
    2.3626   16.3385   21.3329 N   0  0  0  0  0  0  0  0  0  0  0  0
    1.4036   16.5021   21.6016 H   0  0  0  0  0  0  0  0  0  0  0  0
    0.4103   14.8729   19.8049 C   0  0  0  0  0  0  0  0  0  0  0  0
    0.6436   13.9319   20.9367 C   0  0  0  0  0  0  0  0  0  0  0  0
    0.4665   14.4021   22.3541 C   0  0  0  0  0  0  0  0  0  0  0  0
    1.8497   14.0593   21.8441 C   0  0  0  0  0  0  0  0  0  0  0  0
 20 21  1  0  0  0
 21 22  1  0  0  0
 22 23  1  0  0  0
 23 16  1  0  0  0
 16 17  2  0  0  0
 16 18  1  0  0  0
 18  1  1  0  0  0
  1  2  2  0  0  0
  2  3  1  0  0  0
  3  4  2  0  0  0
  4  5  1  0  0  0
  5  6  2  0  0  0
  6  7  1  0  0  0
  7  8  2  0  0  0
  8  9  1  0  0  0
  9 10  1  0  0  0
 10 11  2  0  0  0
 11 12  1  0  0  0
 12 13  1  0  0  0
 12 14  1  0  0  0
 14 15  2  0  0  0
 23 21  1  0  0  0
  9  1  1  0  0  0
 15 10  1  0  0  0
  8  3  1  0  0  0
 18 19  1  0  0  0
M  END
> <minimizedAffinity>
-11.38362

$$$$
OCNT-2308774


 28 30  0  0  0  0  0  0  0  0999 V2000
    1.8138   15.8789   20.5598 N   0  0  0  0  0  0  0  0  0  0  0  0
    2.5718   15.7147   21.6977 C   0  0  0  0  0  0  0  0  0  0  0  0
    2.3187   14.9104   22.5887 O   0  0  0  0  0  0  0  0  0  0  0  0
    2.1155   16.6464   19.9684 H   0  0  0  0  0  0  0  0  0  0  0  0
    3.7367   16.6129   21.7387 C   0  0  0  0  0  0  0  0  0  0  0  0
    4.9408   16.2032   22.1885 N   0  0  0  0  0  0  0  0  0  0  0  0
    5.7137   17.2969   22.0610 N   0  0  0  0  0  0  0  0  0  0  0  0
    5.0788   18.3986   21.5467 C   0  0  0  0  0  0  0  0  0  0  0  0
    3.7832   17.9702   21.3289 C   0  0  0  0  0  0  0  0  0  0  0  0
    6.6898   17.2525   22.3401 H   0  0  0  0  0  0  0  0  0  0  0  0
    5.7527   19.6866   21.3285 C   0  0  0  0  0  0  0  0  0  0  0  0
    6.9255   19.9871   22.0401 C   0  0  0  0  0  0  0  0  0  0  0  0
    7.5926   21.2026   21.8574 C   0  0  0  0  0  0  0  0  0  0  0  0
    7.0988   22.1424   20.9578 C   0  0  0  0  0  0  0  0  0  0  0  0
    5.9371   21.8708   20.2385 C   0  0  0  0  0  0  0  0  0  0  0  0
    5.2721   20.6541   20.4236 C   0  0  0  0  0  0  0  0  0  0  0  0
    4.1278   20.4116   19.7011 O   0  0  0  0  0  0  0  0  0  0  0  0
    3.9572   21.1838   19.1338 H   0  0  0  0  0  0  0  0  0  0  0  0
    0.5045   15.2896   20.4009 C   0  0  0  0  0  0  0  0  0  0  0  0
    0.5372   13.7769   20.6198 C   0  0  0  0  0  0  0  0  0  0  0  0
   -1.4390   18.5480   16.8677 C   0  0  0  0  0  0  0  0  0  0  0  0
   -1.0897   17.1755   17.3849 C   0  0  0  0  0  0  0  0  0  0  0  0
   -1.4329   16.0697   16.5926 C   0  0  0  0  0  0  0  0  0  0  0  0
   -1.1570   14.7795   17.0209 C   0  0  0  0  0  0  0  0  0  0  0  0
   -0.5371   14.5799   18.2494 C   0  0  0  0  0  0  0  0  0  0  0  0
   -0.1654   15.6615   19.0776 C   0  0  0  0  0  0  0  0  0  0  0  0
   -0.4226   16.9842   18.6258 C   0  0  0  0  0  0  0  0  0  0  0  0
   -0.0798   18.1942   19.4604 C   0  0  0  0  0  0  0  0  0  0  0  0
 21 22  1  0  0  0
 22 23  1  0  0  0
 23 24  2  0  0  0
 24 25  1  0  0  0
 25 26  2  0  0  0
 26 19  1  0  0  0
 19 20  1  0  0  0
 19  1  1  0  0  0
  1  2  1  0  0  0
  2  3  2  0  0  0
  2  5  1  0  0  0
  5  6  2  0  0  0
  6  7  1  0  0  0
  7  8  1  0  0  0
  8 11  1  0  0  0
 11 12  2  0  0  0
 12 13  1  0  0  0
 13 14  2  0  0  0
 14 15  1  0  0  0
 15 16  2  0  0  0
 16 17  1  0  0  0
  8  9  2  0  0  0
 26 27  1  0  0  0
 27 28  1  0  0  0
 27 22  2  0  0  0
  9  5  1  0  0  0
 16 11  1  0  0  0
  1  4  1  0  0  0
  7 10  1  0  0  0
 17 18  1  0  0  0
M  END
> <minimizedAffinity>
-9.19738

$$$$
OCNT-2308786


 23 26  0  0  0  0  0  0  0  0999 V2000
    1.2294   15.4079   20.1175 F   0  0  0  0  0  0  0  0  0  0  0  0
    0.7046   16.4448   19.4439 C   0  0  0  0  0  0  0  0  0  0  0  0
   -0.4526   16.1908   18.6940 C   0  0  0  0  0  0  0  0  0  0  0  0
   -1.0291   17.2342   17.9511 C   0  0  0  0  0  0  0  0  0  0  0  0
   -0.4223   18.4870   17.9870 C   0  0  0  0  0  0  0  0  0  0  0  0
   -1.1653   19.3272   17.1900 N   0  0  0  0  0  0  0  0  0  0  0  0
   -2.2221   18.6441   16.6485 C   0  0  0  0  0  0  0  0  0  0  0  0
   -2.1636   17.3450   17.1019 C   0  0  0  0  0  0  0  0  0  0  0  0
    0.7327   18.7396   18.7343 C   0  0  0  0  0  0  0  0  0  0  0  0
    1.2562   19.9756   18.7222 F   0  0  0  0  0  0  0  0  0  0  0  0
    1.3124   17.7063   19.4852 C   0  0  0  0  0  0  0  0  0  0  0  0
   -0.9518   20.3044   17.0360 H   0  0  0  0  0  0  0  0  0  0  0  0
    2.5150   17.9571   20.2659 C   0  0  0  0  0  0  0  0  0  0  0  0
    3.2148   19.1451   20.3025 C   0  0  0  0  0  0  0  0  0  0  0  0
    4.2828   18.9518   21.1371 N   0  0  0  0  0  0  0  0  0  0  0  0
    4.3227   17.7054   21.6595 N   0  0  0  0  0  0  0  0  0  0  0  0
    3.2604   17.1051   21.1156 C   0  0  0  0  0  0  0  0  0  0  0  0
    5.2973   19.9339   21.5295 C   0  0  0  0  0  0  0  0  0  0  0  0
    5.5135   20.9718   20.4261 C   0  0  0  0  0  0  0  0  0  0  0  0
    6.6202   21.9462   20.8168 C   0  0  0  0  0  0  0  0  0  0  0  0
    7.8702   21.1922   21.2570 C   0  0  0  0  0  0  0  0  0  0  0  0
    7.5275   20.1459   22.3092 C   0  0  0  0  0  0  0  0  0  0  0  0
    6.5287   19.2509   21.8246 O   0  0  0  0  0  0  0  0  0  0  0  0
  1  2  1  0  0  0
  2  3  1  0  0  0
  3  4  2  0  0  0
  4  5  1  0  0  0
  5  6  1  0  0  0
  6  7  1  0  0  0
  7  8  2  0  0  0
  5  9  2  0  0  0
  9 10  1  0  0  0
  9 11  1  0  0  0
 11 13  1  0  0  0
 13 14  2  0  0  0
 14 15  1  0  0  0
 15 18  1  0  0  0
 18 19  1  0  0  0
 19 20  1  0  0  0
 20 21  1  0  0  0
 21 22  1  0  0  0
 22 23  1  0  0  0
 15 16  1  0  0  0
 16 17  2  0  0  0
 11  2  2  0  0  0
 17 13  1  0  0  0
  8  4  1  0  0  0
 23 18  1  0  0  0
  6 12  1  0  0  0
M  END
> <minimizedAffinity>
-9.98551

$$$$
OCNT-2308803


 24 26  0  0  0  0  0  0  0  0999 V2000
    2.6291   16.5692   21.0777 C   0  0  0  0  0  0  0  0  0  0  0  0
    1.6579   15.5685   21.1909 C   0  0  0  0  0  0  0  0  0  0  0  0
    1.9854   14.3018   21.6929 C   0  0  0  0  0  0  0  0  0  0  0  0
    3.2952   14.0071   22.0677 C   0  0  0  0  0  0  0  0  0  0  0  0
    4.2872   14.9734   21.9285 C   0  0  0  0  0  0  0  0  0  0  0  0
    3.9564   16.2267   21.4091 C   0  0  0  0  0  0  0  0  0  0  0  0
    2.3747   17.8434   20.5307 N   0  0  0  0  0  0  0  0  0  0  0  0
    1.8230   18.3582   21.2211 H   0  0  0  0  0  0  0  0  0  0  0  0
    1.8145   17.9138   19.1887 C   0  0  0  0  0  0  0  0  0  0  0  0
   -0.6378   16.4267   17.2270 O   0  0  0  0  0  0  0  0  0  0  0  0
   -1.0658   17.7868   17.4874 S   0  0  0  0  0  0  0  0  0  0  0  0
   -2.4018   18.2524   17.1841 O   0  0  0  0  0  0  0  0  0  0  0  0
    0.1207   18.9102   16.7680 C   0  0  0  0  0  0  0  0  0  0  0  0
    0.5831   19.7916   17.9238 C   0  0  0  0  0  0  0  0  0  0  0  0
    0.6345   18.9077   19.1858 C   0  0  0  0  0  0  0  0  0  0  0  0
   -0.7069   18.1687   19.1961 C   0  0  0  0  0  0  0  0  0  0  0  0
    4.9347   17.1894   21.2948 O   0  0  0  0  0  0  0  0  0  0  0  0
    4.9104   18.0513   22.4416 C   0  0  0  0  0  0  0  0  0  0  0  0
    5.2161   19.4966   22.0167 C   0  0  0  0  0  0  0  0  0  0  0  0
    6.7253   19.8043   22.0755 C   0  0  0  0  0  0  0  0  0  0  0  0
    7.1543   20.9529   21.1547 C   0  0  0  0  0  0  0  0  0  0  0  0
    6.0293   21.9522   20.9280 C   0  0  0  0  0  0  0  0  0  0  0  0
    4.8130   21.2952   20.2735 C   0  0  0  0  0  0  0  0  0  0  0  0
    4.6542   19.8128   20.6255 C   0  0  0  0  0  0  0  0  0  0  0  0
 10 11  2  0  0  0
 11 12  2  0  0  0
 11 13  1  0  0  0
 13 14  1  0  0  0
 14 15  1  0  0  0
 15  9  1  0  0  0
  9  7  1  0  0  0
  7  1  1  0  0  0
  1  2  2  0  0  0
  2  3  1  0  0  0
  3  4  2  0  0  0
  4  5  1  0  0  0
  5  6  2  0  0  0
  6 17  1  0  0  0
 17 18  1  0  0  0
 18 19  1  0  0  0
 19 20  1  0  0  0
 20 21  1  0  0  0
 21 22  1  0  0  0
 22 23  1  0  0  0
 23 24  1  0  0  0
 15 16  1  0  0  0
 16 11  1  0  0  0
  6  1  1  0  0  0
 24 19  1  0  0  0
  7  8  1  0  0  0
M  END
> <minimizedAffinity>
-9.92320

$$$$
OCNT-2308808


 22 23  0  0  0  0  0  0  0  0999 V2000
    3.4859   20.0627   20.4340 N   0  0  0  0  0  0  0  0  0  0  0  0
    3.1863   18.9855   19.6261 C   0  0  0  0  0  0  0  0  0  0  0  0
    3.9807   18.1697   19.1648 O   0  0  0  0  0  0  0  0  0  0  0  0
    2.8236   20.8352   20.4345 H   0  0  0  0  0  0  0  0  0  0  0  0
    5.6550   19.8405   21.6282 N   0  0  0  0  0  0  0  0  0  0  0  0
    6.8381   20.5340   21.5284 C   0  0  0  0  0  0  0  0  0  0  0  0
    6.5592   21.6153   20.7319 C   0  0  0  0  0  0  0  0  0  0  0  0
    5.2615   21.5746   20.3066 N   0  0  0  0  0  0  0  0  0  0  0  0
    4.7576   20.4523   20.7764 C   0  0  0  0  0  0  0  0  0  0  0  0
    5.5683   17.3584   21.9779 C   0  0  0  0  0  0  0  0  0  0  0  0
    5.4107   18.7575   22.5632 C   0  0  0  0  0  0  0  0  0  0  0  0
    1.7061   18.8798   19.3218 C   0  0  0  0  0  0  0  0  0  0  0  0
    1.2211   17.4656   19.4754 C   0  0  0  0  0  0  0  0  0  0  0  0
    0.1849   16.9767   18.6887 C   0  0  0  0  0  0  0  0  0  0  0  0
   -0.2552   15.6745   18.8962 C   0  0  0  0  0  0  0  0  0  0  0  0
    0.3423   14.8989   19.8847 C   0  0  0  0  0  0  0  0  0  0  0  0
    1.3678   15.4501   20.6539 C   0  0  0  0  0  0  0  0  0  0  0  0
    1.8073   16.7287   20.4527 N   0  0  0  0  0  0  0  0  0  0  0  0
    2.0288   14.5865   21.7220 C   0  0  0  0  0  0  0  0  0  0  0  0
    1.5099   14.7510   22.9714 F   0  0  0  0  0  0  0  0  0  0  0  0
    3.3662   14.8358   21.8370 F   0  0  0  0  0  0  0  0  0  0  0  0
    1.9304   13.2509   21.4534 F   0  0  0  0  0  0  0  0  0  0  0  0
 10 11  1  0  0  0
 11  5  1  0  0  0
  5  6  1  0  0  0
  6  7  2  0  0  0
  7  8  1  0  0  0
  8  9  2  0  0  0
  9  1  1  0  0  0
  1  2  1  0  0  0
  2  3  2  0  0  0
  2 12  1  0  0  0
 12 13  1  0  0  0
 13 14  2  0  0  0
 14 15  1  0  0  0
 15 16  2  0  0  0
 16 17  1  0  0  0
 17 19  1  0  0  0
 19 20  1  0  0  0
 19 21  1  0  0  0
 19 22  1  0  0  0
 17 18  2  0  0  0
  9  5  1  0  0  0
 18 13  1  0  0  0
  1  4  1  0  0  0
M  END
> <minimizedAffinity>
-9.85798

$$$$
OCNT-2308829


 23 24  0  0  0  0  0  0  0  0999 V2000
    0.4676   15.6094   19.1669 C   0  0  0  0  0  0  0  0  0  0  0  0
    0.3140   14.2768   19.9342 C   0  0  0  0  0  0  0  0  0  0  0  0
    0.5194   14.4349   21.4380 C   0  0  0  0  0  0  0  0  0  0  0  0
    1.8502   15.1207   21.7444 C   0  0  0  0  0  0  0  0  0  0  0  0
    2.1130   16.2692   20.8798 N   0  0  0  0  0  0  0  0  0  0  0  0
    3.3000   16.9948   20.8992 C   0  0  0  0  0  0  0  0  0  0  0  0
    3.4707   17.9977   20.2004 O   0  0  0  0  0  0  0  0  0  0  0  0
    0.9947   16.7384   20.0668 C   0  0  0  0  0  0  0  0  0  0  0  0
   -0.8416   16.0336   18.4867 C   0  0  0  0  0  0  0  0  0  0  0  0
   -1.0164   17.4397   18.6364 O   0  0  0  0  0  0  0  0  0  0  0  0
    0.1768   19.4073   17.7765 C   0  0  0  0  0  0  0  0  0  0  0  0
   -0.7923   18.2575   17.4782 C   0  0  0  0  0  0  0  0  0  0  0  0
   -2.1098   18.7884   16.9011 C   0  0  0  0  0  0  0  0  0  0  0  0
   -0.1450   17.3189   16.4497 C   0  0  0  0  0  0  0  0  0  0  0  0
    4.4476   16.4701   21.7757 C   0  0  0  0  0  0  0  0  0  0  0  0
    5.5881   17.3196   21.7751 O   0  0  0  0  0  0  0  0  0  0  0  0
    5.4261   18.4607   22.6169 C   0  0  0  0  0  0  0  0  0  0  0  0
    5.7789   19.7459   21.9130 C   0  0  0  0  0  0  0  0  0  0  0  0
    4.7882   20.5074   21.2864 C   0  0  0  0  0  0  0  0  0  0  0  0
    5.1599   21.6673   20.6233 C   0  0  0  0  0  0  0  0  0  0  0  0
    6.4320   22.1086   20.5355 N   0  0  0  0  0  0  0  0  0  0  0  0
    7.3762   21.3561   21.1396 C   0  0  0  0  0  0  0  0  0  0  0  0
    7.1043   20.1820   21.8237 C   0  0  0  0  0  0  0  0  0  0  0  0
 11 12  1  0  0  0
 12 13  1  0  0  0
 12 14  1  0  0  0
 12 10  1  0  0  0
 10  9  1  0  0  0
  9  1  1  0  0  0
  1  2  1  0  0  0
  2  3  1  0  0  0
  3  4  1  0  0  0
  4  5  1  0  0  0
  5  6  1  0  0  0
  6  7  2  0  0  0
  6 15  1  0  0  0
 15 16  1  0  0  0
 16 17  1  0  0  0
 17 18  1  0  0  0
 18 19  2  0  0  0
 19 20  1  0  0  0
 20 21  2  0  0  0
 21 22  1  0  0  0
 22 23  2  0  0  0
  5  8  1  0  0  0
  8  1  1  0  0  0
 23 18  1  0  0  0
M  END
> <minimizedAffinity>
-9.12956

$$$$
OCNT-2308837


 26 28  0  0  0  0  0  0  0  0999 V2000
    2.4940   14.7009   22.8330 C   0  0  0  0  0  0  0  0  0  0  0  0
    2.7246   15.5799   21.5979 C   0  0  0  0  0  0  0  0  0  0  0  0
    1.5686   15.4115   20.6167 C   0  0  0  0  0  0  0  0  0  0  0  0
    0.8916   14.1895   20.4969 C   0  0  0  0  0  0  0  0  0  0  0  0
   -0.1619   14.0484   19.5968 C   0  0  0  0  0  0  0  0  0  0  0  0
   -0.5580   15.1256   18.8013 C   0  0  0  0  0  0  0  0  0  0  0  0
    0.0995   16.3598   18.9015 C   0  0  0  0  0  0  0  0  0  0  0  0
    1.1614   16.4928   19.8128 C   0  0  0  0  0  0  0  0  0  0  0  0
   -0.3023   17.4633   18.0914 N   0  0  0  0  0  0  0  0  0  0  0  0
    0.5018   18.4439   17.5469 C   0  0  0  0  0  0  0  0  0  0  0  0
   -0.3323   19.2849   16.8492 C   0  0  0  0  0  0  0  0  0  0  0  0
   -1.6261   18.8655   16.9379 N   0  0  0  0  0  0  0  0  0  0  0  0
   -1.5814   17.7815   17.6816 C   0  0  0  0  0  0  0  0  0  0  0  0
    2.8675   17.0024   21.9569 N   0  0  0  0  0  0  0  0  0  0  0  0
    1.9783   17.4542   21.7266 H   0  0  0  0  0  0  0  0  0  0  0  0
    3.9035   17.6825   21.1459 C   0  0  0  0  0  0  0  0  0  0  0  0
    5.0232   18.3157   22.0313 C   0  0  0  0  0  0  0  0  0  0  0  0
    6.2424   17.3851   22.1462 C   0  0  0  0  0  0  0  0  0  0  0  0
    4.4903   18.4650   23.3613 O   0  0  0  0  0  0  0  0  0  0  0  0
    4.3121   17.5576   23.6674 H   0  0  0  0  0  0  0  0  0  0  0  0
    5.4333   19.6797   21.4746 C   0  0  0  0  0  0  0  0  0  0  0  0
    6.6811   20.2497   21.7781 C   0  0  0  0  0  0  0  0  0  0  0  0
    7.0458   21.5006   21.2733 C   0  0  0  0  0  0  0  0  0  0  0  0
    6.1688   22.2066   20.4551 C   0  0  0  0  0  0  0  0  0  0  0  0
    4.9269   21.6625   20.1410 C   0  0  0  0  0  0  0  0  0  0  0  0
    4.5621   20.4116   20.6459 C   0  0  0  0  0  0  0  0  0  0  0  0
  1  2  1  0  0  0
  2 14  1  0  0  0
 14 16  1  0  0  0
 16 17  1  0  0  0
 17 18  1  0  0  0
 17 19  1  0  0  0
 17 21  1  0  0  0
 21 22  2  0  0  0
 22 23  1  0  0  0
 23 24  2  0  0  0
 24 25  1  0  0  0
 25 26  2  0  0  0
  2  3  1  0  0  0
  3  4  2  0  0  0
  4  5  1  0  0  0
  5  6  2  0  0  0
  6  7  1  0  0  0
  7  9  1  0  0  0
  9 10  1  0  0  0
 10 11  2  0  0  0
 11 12  1  0  0  0
 12 13  2  0  0  0
  7  8  2  0  0  0
 26 21  1  0  0  0
  8  3  1  0  0  0
 13  9  1  0  0  0
 14 15  1  0  0  0
 19 20  1  0  0  0
M  END
> <minimizedAffinity>
-10.44007

$$$$
OCNT-2308847


 24 26  0  0  0  0  0  0  0  0999 V2000
    3.7355   17.4712   21.3781 N   0  0  0  0  0  0  0  0  0  0  0  0
    3.3263   16.1472   21.4504 C   0  0  0  0  0  0  0  0  0  0  0  0
    3.9684   15.2781   22.0276 O   0  0  0  0  0  0  0  0  0  0  0  0
    3.1171   18.1084   20.8819 H   0  0  0  0  0  0  0  0  0  0  0  0
    2.0126   15.8858   20.7672 C   0  0  0  0  0  0  0  0  0  0  0  0
    1.5591   16.9585   20.0531 N   0  0  0  0  0  0  0  0  0  0  0  0
    0.3852   16.8450   19.4213 C   0  0  0  0  0  0  0  0  0  0  0  0
   -0.3181   15.7071   19.4284 N   0  0  0  0  0  0  0  0  0  0  0  0
    0.1615   14.6708   20.1498 C   0  0  0  0  0  0  0  0  0  0  0  0
    1.3327   14.6944   20.8678 C   0  0  0  0  0  0  0  0  0  0  0  0
    1.8095   13.2998   21.7434 Cl  0  0  0  0  0  0  0  0  0  0  0  0
   -0.0975   17.9293   18.7313 N   0  0  0  0  0  0  0  0  0  0  0  0
    0.8616   18.8469   18.1267 C   0  0  0  0  0  0  0  0  0  0  0  0
    0.0411   19.5546   17.0502 C   0  0  0  0  0  0  0  0  0  0  0  0
   -0.8856   18.4459   16.5730 C   0  0  0  0  0  0  0  0  0  0  0  0
   -1.2603   17.7312   17.8708 C   0  0  0  0  0  0  0  0  0  0  0  0
    4.9452   17.9672   21.9944 C   0  0  0  0  0  0  0  0  0  0  0  0
    7.5325   21.6364   20.2077 C   0  0  0  0  0  0  0  0  0  0  0  0
    6.4095   21.9854   21.0777 N   0  0  0  0  0  0  0  0  0  0  0  0
    5.1184   21.5717   20.5107 C   0  0  0  0  0  0  0  0  0  0  0  0
    4.8633   20.0619   20.5515 C   0  0  0  0  0  0  0  0  0  0  0  0
    5.0385   19.4964   21.9657 C   0  0  0  0  0  0  0  0  0  0  0  0
    6.3859   19.9480   22.5501 C   0  0  0  0  0  0  0  0  0  0  0  0
    6.5760   21.4633   22.4365 C   0  0  0  0  0  0  0  0  0  0  0  0
 18 19  1  0  0  0
 19 20  1  0  0  0
 20 21  1  0  0  0
 21 22  1  0  0  0
 22 17  1  0  0  0
 17  1  1  0  0  0
  1  2  1  0  0  0
  2  3  2  0  0  0
  2  5  1  0  0  0
  5  6  2  0  0  0
  6  7  1  0  0  0
  7 12  1  0  0  0
 12 13  1  0  0  0
 13 14  1  0  0  0
 14 15  1  0  0  0
 15 16  1  0  0  0
  7  8  2  0  0  0
  8  9  1  0  0  0
  9 10  2  0  0  0
 10 11  1  0  0  0
 22 23  1  0  0  0
 23 24  1  0  0  0
 24 19  1  0  0  0
 10  5  1  0  0  0
 16 12  1  0  0  0
  1  4  1  0  0  0
M  END
> <minimizedAffinity>
-9.29816

$$$$
OCNT-2308854


 26 29  0  0  0  0  0  0  0  0999 V2000
    0.7136   20.5467   19.4652 O   0  0  0  0  0  0  0  0  0  0  0  0
    1.6879   19.8454   19.2064 C   0  0  0  0  0  0  0  0  0  0  0  0
    1.6174   18.7794   18.3284 N   0  0  0  0  0  0  0  0  0  0  0  0
    2.3841   18.1270   18.2981 H   0  0  0  0  0  0  0  0  0  0  0  0
    3.0097   20.0657   19.8146 C   0  0  0  0  0  0  0  0  0  0  0  0
    3.7632   19.1830   20.5737 C   0  0  0  0  0  0  0  0  0  0  0  0
    4.9189   19.8489   20.8977 N   0  0  0  0  0  0  0  0  0  0  0  0
    6.0125   19.4149   21.6442 C   0  0  0  0  0  0  0  0  0  0  0  0
    7.0472   20.2515   21.8345 C   0  0  0  0  0  0  0  0  0  0  0  0
    6.9907   21.5850   21.2529 C   0  0  0  0  0  0  0  0  0  0  0  0
    5.9284   21.9945   20.5316 C   0  0  0  0  0  0  0  0  0  0  0  0
    4.8308   21.1113   20.3280 C   0  0  0  0  0  0  0  0  0  0  0  0
    3.7001   21.2616   19.6757 N   0  0  0  0  0  0  0  0  0  0  0  0
    0.3581   18.3502   17.7682 C   0  0  0  0  0  0  0  0  0  0  0  0
    0.0681   16.9177   18.1379 C   0  0  0  0  0  0  0  0  0  0  0  0
   -0.5955   16.0791   17.2334 C   0  0  0  0  0  0  0  0  0  0  0  0
   -0.8809   14.7579   17.5724 C   0  0  0  0  0  0  0  0  0  0  0  0
   -0.5085   14.2595   18.8205 C   0  0  0  0  0  0  0  0  0  0  0  0
    0.1552   15.0780   19.7457 C   0  0  0  0  0  0  0  0  0  0  0  0
    0.4261   16.4125   19.3973 C   0  0  0  0  0  0  0  0  0  0  0  0
    0.5309   14.5322   21.1019 C   0  0  0  0  0  0  0  0  0  0  0  0
    1.9232   14.7815   21.4367 N   0  0  0  0  0  0  0  0  0  0  0  0
    2.5649   15.9891   21.3908 C   0  0  0  0  0  0  0  0  0  0  0  0
    3.8395   15.7290   21.8373 C   0  0  0  0  0  0  0  0  0  0  0  0
    3.9820   14.4041   22.1580 N   0  0  0  0  0  0  0  0  0  0  0  0
    2.8127   13.8582   21.9094 C   0  0  0  0  0  0  0  0  0  0  0  0
  1  2  2  0  0  0
  2  3  1  0  0  0
  3 14  1  0  0  0
 14 15  1  0  0  0
 15 16  1  0  0  0
 16 17  2  0  0  0
 17 18  1  0  0  0
 18 19  2  0  0  0
 19 21  1  0  0  0
 21 22  1  0  0  0
 22 23  1  0  0  0
 23 24  2  0  0  0
 24 25  1  0  0  0
 25 26  2  0  0  0
 19 20  1  0  0  0
  2  5  1  0  0  0
  5  6  2  0  0  0
  6  7  1  0  0  0
  7  8  1  0  0  0
  8  9  2  0  0  0
  9 10  1  0  0  0
 10 11  2  0  0  0
 11 12  1  0  0  0
 12 13  2  0  0  0
 20 15  2  0  0  0
 13  5  1  0  0  0
 26 22  1  0  0  0
 12  7  1  0  0  0
  3  4  1  0  0  0
M  END
> <minimizedAffinity>
-10.81752

$$$$
