OCNT-2312407


 25 28  0  0  0  0  0  0  0  0999 V2000
    1.9184   15.0430   21.8515 O   0  0  0  0  0  0  0  0  0  0  0  0
    2.0463   15.9196   21.0030 C   0  0  0  0  0  0  0  0  0  0  0  0
    3.1384   16.7505   20.9487 N   0  0  0  0  0  0  0  0  0  0  0  0
    3.0978   17.6251   20.4380 H   0  0  0  0  0  0  0  0  0  0  0  0
    0.9862   16.1421   19.9801 C   0  0  0  0  0  0  0  0  0  0  0  0
    0.3130   15.0275   19.4698 C   0  0  0  0  0  0  0  0  0  0  0  0
   -0.6710   15.1845   18.4900 C   0  0  0  0  0  0  0  0  0  0  0  0
   -0.9910   16.4588   17.9953 C   0  0  0  0  0  0  0  0  0  0  0  0
   -1.9639   16.6437   17.0056 C   0  0  0  0  0  0  0  0  0  0  0  0
   -2.2196   17.9286   16.5524 C   0  0  0  0  0  0  0  0  0  0  0  0
   -1.5875   19.0289   17.0114 N   0  0  0  0  0  0  0  0  0  0  0  0
   -0.6513   18.8321   17.9692 C   0  0  0  0  0  0  0  0  0  0  0  0
   -0.3089   17.5846   18.5002 C   0  0  0  0  0  0  0  0  0  0  0  0
    0.6788   17.4204   19.4906 C   0  0  0  0  0  0  0  0  0  0  0  0
    4.1723   16.6780   21.9522 C   0  0  0  0  0  0  0  0  0  0  0  0
    4.9827   17.9235   21.8589 C   0  0  0  0  0  0  0  0  0  0  0  0
    6.1285   18.1661   22.4781 N   0  0  0  0  0  0  0  0  0  0  0  0
    6.4815   19.4271   22.0927 C   0  0  0  0  0  0  0  0  0  0  0  0
    5.5438   19.9631   21.2440 C   0  0  0  0  0  0  0  0  0  0  0  0
    5.5721   21.3185   20.6502 C   0  0  0  0  0  0  0  0  0  0  0  0
    6.9988   21.8955   20.7756 C   0  0  0  0  0  0  0  0  0  0  0  0
    7.6253   21.6336   22.1647 C   0  0  0  0  0  0  0  0  0  0  0  0
    7.7242   20.1297   22.4984 C   0  0  0  0  0  0  0  0  0  0  0  0
    4.5898   19.0016   21.0962 N   0  0  0  0  0  0  0  0  0  0  0  0
    3.7443   19.0625   20.5426 H   0  0  0  0  0  0  0  0  0  0  0  0
  1  2  2  0  0  0
  2  3  1  0  0  0
  3 15  1  0  0  0
 15 16  1  0  0  0
 16 17  2  0  0  0
 17 18  1  0  0  0
 18 19  2  0  0  0
 19 20  1  0  0  0
 20 21  1  0  0  0
 21 22  1  0  0  0
 22 23  1  0  0  0
 19 24  1  0  0  0
  2  5  1  0  0  0
  5  6  1  0  0  0
  6  7  2  0  0  0
  7  8  1  0  0  0
  8  9  2  0  0  0
  9 10  1  0  0  0
 10 11  2  0  0  0
 11 12  1  0  0  0
 12 13  2  0  0  0
 13 14  1  0  0  0
 24 16  1  0  0  0
 14  5  2  0  0  0
 23 18  1  0  0  0
 13  8  1  0  0  0
  3  4  1  0  0  0
 24 25  1  0  0  0
M  END
> <minimizedAffinity>
-8.13420

$$$$
OCNT-2312414


 23 25  0  0  0  0  0  0  0  0999 V2000
    1.2147   18.9292   19.1906 C   0  0  0  0  0  0  0  0  0  0  0  0
    0.5658   18.4264   18.0827 C   0  0  0  0  0  0  0  0  0  0  0  0
    0.1358   19.2785   16.6721 Cl  0  0  0  0  0  0  0  0  0  0  0  0
    0.2655   17.0550   18.3283 C   0  0  0  0  0  0  0  0  0  0  0  0
   -0.4002   16.0423   17.6055 C   0  0  0  0  0  0  0  0  0  0  0  0
   -0.5327   14.7743   18.1807 C   0  0  0  0  0  0  0  0  0  0  0  0
   -1.4324   13.4133   17.2213 Br  0  0  0  0  0  0  0  0  0  0  0  0
   -0.0201   14.4967   19.4456 C   0  0  0  0  0  0  0  0  0  0  0  0
    0.6478   15.4831   20.1772 C   0  0  0  0  0  0  0  0  0  0  0  0
    0.7753   16.7475   19.5913 C   0  0  0  0  0  0  0  0  0  0  0  0
    1.3836   17.8850   20.0709 N   0  0  0  0  0  0  0  0  0  0  0  0
    1.8228   17.9744   20.9806 H   0  0  0  0  0  0  0  0  0  0  0  0
    3.6258   21.7421   19.7198 C   0  0  0  0  0  0  0  0  0  0  0  0
    3.0754   20.3981   19.6693 N   0  0  0  0  0  0  0  0  0  0  0  0
    1.6994   20.2556   19.4752 C   0  0  0  0  0  0  0  0  0  0  0  0
    0.9309   21.2133   19.4785 O   0  0  0  0  0  0  0  0  0  0  0  0
    4.0367   19.3034   19.5370 C   0  0  0  0  0  0  0  0  0  0  0  0
    4.5043   18.8224   20.8675 C   0  0  0  0  0  0  0  0  0  0  0  0
    3.9653   17.9040   21.6449 N   0  0  0  0  0  0  0  0  0  0  0  0
    4.6872   17.8563   22.8140 N   0  0  0  0  0  0  0  0  0  0  0  0
    5.6561   18.7349   22.7210 C   0  0  0  0  0  0  0  0  0  0  0  0
    5.5862   19.3622   21.5157 N   0  0  0  0  0  0  0  0  0  0  0  0
    6.1823   20.1090   21.1882 H   0  0  0  0  0  0  0  0  0  0  0  0
 13 14  1  0  0  0
 14 17  1  0  0  0
 17 18  1  0  0  0
 18 19  2  0  0  0
 19 20  1  0  0  0
 20 21  2  0  0  0
 21 22  1  0  0  0
 14 15  1  0  0  0
 15 16  2  0  0  0
 15  1  1  0  0  0
  1  2  2  0  0  0
  2  3  1  0  0  0
  2  4  1  0  0  0
  4  5  2  0  0  0
  5  6  1  0  0  0
  6  7  1  0  0  0
  6  8  2  0  0  0
  8  9  1  0  0  0
  9 10  2  0  0  0
 10 11  1  0  0  0
 22 18  1  0  0  0
 11  1  1  0  0  0
 10  4  1  0  0  0
 22 23  1  0  0  0
 11 12  1  0  0  0
M  END
> <minimizedAffinity>
-7.82259

$$$$
OCNT-2312417


 21 24  0  0  0  0  0  0  0  0999 V2000
    2.1660   18.1867   19.7974 C   0  0  0  0  0  0  0  0  0  0  0  0
    1.4994   19.2966   19.4577 N   0  0  0  0  0  0  0  0  0  0  0  0
    2.5001   20.2632   19.3765 O   0  0  0  0  0  0  0  0  0  0  0  0
    3.6754   19.6323   19.6701 C   0  0  0  0  0  0  0  0  0  0  0  0
    3.5208   18.3593   19.9560 N   0  0  0  0  0  0  0  0  0  0  0  0
    4.8963   20.4743   19.6755 C   0  0  0  0  0  0  0  0  0  0  0  0
    4.6670   21.9393   20.1636 C   0  0  0  0  0  0  0  0  0  0  0  0
    5.7266   22.0988   21.2769 C   0  0  0  0  0  0  0  0  0  0  0  0
    5.3100   21.2271   22.4373 C   0  0  0  0  0  0  0  0  0  0  0  0
    5.4874   19.9522   22.0602 C   0  0  0  0  0  0  0  0  0  0  0  0
    6.0081   19.9759   20.6379 C   0  0  0  0  0  0  0  0  0  0  0  0
    6.8726   21.2396   20.7342 C   0  0  0  0  0  0  0  0  0  0  0  0
    0.5527   16.2230   19.2752 C   0  0  0  0  0  0  0  0  0  0  0  0
    0.2475   15.0309   19.8189 N   0  0  0  0  0  0  0  0  0  0  0  0
    1.0753   14.9203   20.8700 N   0  0  0  0  0  0  0  0  0  0  0  0
    1.0237   13.7341   21.6889 C   0  0  0  0  0  0  0  0  0  0  0  0
    1.8885   15.9954   21.0379 C   0  0  0  0  0  0  0  0  0  0  0  0
    1.5727   16.8742   20.0238 C   0  0  0  0  0  0  0  0  0  0  0  0
   -1.2736   17.7080   18.4210 C   0  0  0  0  0  0  0  0  0  0  0  0
   -0.1871   16.6963   18.0490 C   0  0  0  0  0  0  0  0  0  0  0  0
   -0.7942   15.5463   17.2366 C   0  0  0  0  0  0  0  0  0  0  0  0
 19 20  1  0  0  0
 20 21  1  0  0  0
 20 13  1  0  0  0
 13 14  2  0  0  0
 14 15  1  0  0  0
 15 16  1  0  0  0
 15 17  1  0  0  0
 17 18  2  0  0  0
 18  1  1  0  0  0
  1  2  2  0  0  0
  2  3  1  0  0  0
  3  4  1  0  0  0
  4  6  1  0  0  0
  6  7  1  0  0  0
  7  8  1  0  0  0
  8  9  1  0  0  0
  9 10  2  0  0  0
 10 11  1  0  0  0
 11 12  1  0  0  0
  4  5  2  0  0  0
 18 13  1  0  0  0
  5  1  1  0  0  0
 11  6  1  0  0  0
 12  8  1  0  0  0
M  END
> <minimizedAffinity>
-10.26690

$$$$
OCNT-2312418


 26 29  0  0  0  0  0  0  0  0999 V2000
    5.1364   15.7406   21.7392 O   0  0  0  0  0  0  0  0  0  0  0  0
    4.1862   16.5155   21.6449 C   0  0  0  0  0  0  0  0  0  0  0  0
    2.8885   16.0965   21.8937 N   0  0  0  0  0  0  0  0  0  0  0  0
    2.1171   16.7041   21.6645 H   0  0  0  0  0  0  0  0  0  0  0  0
    4.3242   17.9329   21.2443 C   0  0  0  0  0  0  0  0  0  0  0  0
    3.5729   18.4570   20.2541 N   0  0  0  0  0  0  0  0  0  0  0  0
    3.9634   19.7357   20.1650 N   0  0  0  0  0  0  0  0  0  0  0  0
    4.9363   20.0642   21.0555 C   0  0  0  0  0  0  0  0  0  0  0  0
    5.1985   18.9278   21.7769 C   0  0  0  0  0  0  0  0  0  0  0  0
    3.5243   20.3280   19.4686 H   0  0  0  0  0  0  0  0  0  0  0  0
    5.5922   21.4501   21.2251 C   0  0  0  0  0  0  0  0  0  0  0  0
    6.9745   21.6714   20.6713 C   0  0  0  0  0  0  0  0  0  0  0  0
    6.7664   21.5965   22.1556 C   0  0  0  0  0  0  0  0  0  0  0  0
    2.5949   14.7157   22.2330 C   0  0  0  0  0  0  0  0  0  0  0  0
    1.1026   14.3942   22.1425 C   0  0  0  0  0  0  0  0  0  0  0  0
    0.5629   14.6599   20.7770 C   0  0  0  0  0  0  0  0  0  0  0  0
   -0.0156   13.7414   19.9261 C   0  0  0  0  0  0  0  0  0  0  0  0
   -0.4894   14.5066   18.4735 S   0  0  0  0  0  0  0  0  0  0  0  0
    0.1001   16.0164   19.0670 C   0  0  0  0  0  0  0  0  0  0  0  0
    0.6268   15.9503   20.2779 N   0  0  0  0  0  0  0  0  0  0  0  0
    0.0309   17.2574   18.2672 C   0  0  0  0  0  0  0  0  0  0  0  0
    0.8315   18.3509   18.6443 C   0  0  0  0  0  0  0  0  0  0  0  0
    0.8077   19.5507   17.9276 C   0  0  0  0  0  0  0  0  0  0  0  0
   -0.0226   19.6812   16.8185 C   0  0  0  0  0  0  0  0  0  0  0  0
   -0.8282   18.6147   16.4287 C   0  0  0  0  0  0  0  0  0  0  0  0
   -0.8029   17.4139   17.1470 C   0  0  0  0  0  0  0  0  0  0  0  0
  1  2  2  0  0  0
  2  3  1  0  0  0
  3 14  1  0  0  0
 14 15  1  0  0  0
 15 16  1  0  0  0
 16 17  2  0  0  0
 17 18  1  0  0  0
 18 19  1  0  0  0
 19 21  1  0  0  0
 21 22  2  0  0  0
 22 23  1  0  0  0
 23 24  2  0  0  0
 24 25  1  0  0  0
 25 26  2  0  0  0
 19 20  2  0  0  0
  2  5  1  0  0  0
  5  6  2  0  0  0
  6  7  1  0  0  0
  7  8  1  0  0  0
  8 11  1  0  0  0
 11 12  1  0  0  0
 12 13  1  0  0  0
  8  9  2  0  0  0
 20 16  1  0  0  0
  9  5  1  0  0  0
 26 21  1  0  0  0
 13 11  1  0  0  0
  3  4  1  0  0  0
  7 10  1  0  0  0
M  END
> <minimizedAffinity>
-8.88143

$$$$
OCNT-2312420


 27 29  0  0  0  0  0  0  0  0999 V2000
    4.4856   17.6446   22.4641 N   0  0  0  0  0  0  0  0  0  0  0  0
    3.9206   16.8812   21.4673 C   0  0  0  0  0  0  0  0  0  0  0  0
    4.5757   16.3974   20.5544 O   0  0  0  0  0  0  0  0  0  0  0  0
    2.5660   16.7465   21.6799 N   0  0  0  0  0  0  0  0  0  0  0  0
    3.9215   18.4245   22.7829 H   0  0  0  0  0  0  0  0  0  0  0  0
    2.2543   17.0578   22.5873 H   0  0  0  0  0  0  0  0  0  0  0  0
    1.6246   16.0822   20.8669 C   0  0  0  0  0  0  0  0  0  0  0  0
    1.2763   14.7383   21.0204 C   0  0  0  0  0  0  0  0  0  0  0  0
    0.3306   14.1520   20.1770 C   0  0  0  0  0  0  0  0  0  0  0  0
   -0.2709   14.9055   19.1690 C   0  0  0  0  0  0  0  0  0  0  0  0
    0.0680   16.2541   18.9859 C   0  0  0  0  0  0  0  0  0  0  0  0
    1.0209   16.8297   19.8441 C   0  0  0  0  0  0  0  0  0  0  0  0
   -0.5736   17.0202   17.9210 C   0  0  0  0  0  0  0  0  0  0  0  0
   -0.3198   17.0217   16.6229 N   0  0  0  0  0  0  0  0  0  0  0  0
   -1.2142   17.9277   16.1104 C   0  0  0  0  0  0  0  0  0  0  0  0
   -1.9802   18.4536   17.1206 C   0  0  0  0  0  0  0  0  0  0  0  0
   -1.5829   17.8796   18.2907 O   0  0  0  0  0  0  0  0  0  0  0  0
    5.8917   17.9941   22.3789 C   0  0  0  0  0  0  0  0  0  0  0  0
    5.3986   20.0756   20.9666 C   0  0  0  0  0  0  0  0  0  0  0  0
    5.7245   21.4135   20.6958 C   0  0  0  0  0  0  0  0  0  0  0  0
    6.7165   22.0650   21.4246 C   0  0  0  0  0  0  0  0  0  0  0  0
    7.3751   21.3604   22.4114 C   0  0  0  0  0  0  0  0  0  0  0  0
    7.1138   20.0722   22.7061 N   0  0  0  0  0  0  0  0  0  0  0  0
    6.1324   19.4418   21.9975 C   0  0  0  0  0  0  0  0  0  0  0  0
    4.9174   18.9411   18.9367 C   0  0  0  0  0  0  0  0  0  0  0  0
    4.3955   19.3799   20.2420 N   0  0  0  0  0  0  0  0  0  0  0  0
    3.1031   20.0719   20.1535 C   0  0  0  0  0  0  0  0  0  0  0  0
 25 26  1  0  0  0
 26 27  1  0  0  0
 26 19  1  0  0  0
 19 20  1  0  0  0
 20 21  2  0  0  0
 21 22  1  0  0  0
 22 23  2  0  0  0
 23 24  1  0  0  0
 24 18  1  0  0  0
 18  1  1  0  0  0
  1  2  1  0  0  0
  2  3  2  0  0  0
  2  4  1  0  0  0
  4  7  1  0  0  0
  7  8  2  0  0  0
  8  9  1  0  0  0
  9 10  2  0  0  0
 10 11  1  0  0  0
 11 13  1  0  0  0
 13 14  2  0  0  0
 14 15  1  0  0  0
 15 16  2  0  0  0
 16 17  1  0  0  0
 11 12  2  0  0  0
 24 19  2  0  0  0
 12  7  1  0  0  0
 17 13  1  0  0  0
  1  5  1  0  0  0
  4  6  1  0  0  0
M  END
> <minimizedAffinity>
-7.51147

$$$$
OCNT-2312429


 24 26  0  0  0  0  0  0  0  0999 V2000
    3.9324   17.4558   21.1890 C   0  0  0  0  0  0  0  0  0  0  0  0
    2.4809   17.4205   20.9939 N   0  0  0  0  0  0  0  0  0  0  0  0
    2.0934   16.5140   21.2457 H   0  0  0  0  0  0  0  0  0  0  0  0
    1.8089   18.0173   19.9455 C   0  0  0  0  0  0  0  0  0  0  0  0
    2.1045   19.2437   19.5878 N   0  0  0  0  0  0  0  0  0  0  0  0
    1.4186   19.8403   18.5535 C   0  0  0  0  0  0  0  0  0  0  0  0
    0.4478   19.2338   17.8602 C   0  0  0  0  0  0  0  0  0  0  0  0
    0.1120   17.9364   18.1919 N   0  0  0  0  0  0  0  0  0  0  0  0
   -0.8212   17.1345   17.6155 N   0  0  0  0  0  0  0  0  0  0  0  0
   -0.7291   15.9855   18.2900 C   0  0  0  0  0  0  0  0  0  0  0  0
    0.2476   16.0378   19.2899 C   0  0  0  0  0  0  0  0  0  0  0  0
    0.6796   14.6145   20.4200 Br  0  0  0  0  0  0  0  0  0  0  0  0
    0.7757   17.3007   19.2231 C   0  0  0  0  0  0  0  0  0  0  0  0
    4.5435   16.0731   21.4568 C   0  0  0  0  0  0  0  0  0  0  0  0
    4.0993   13.7743   22.0574 O   0  0  0  0  0  0  0  0  0  0  0  0
    3.5437   15.0863   22.0476 C   0  0  0  0  0  0  0  0  0  0  0  0
    4.3166   13.5358   21.1410 H   0  0  0  0  0  0  0  0  0  0  0  0
    4.3402   18.4750   22.2760 C   0  0  0  0  0  0  0  0  0  0  0  0
    5.2241   19.5825   21.7426 C   0  0  0  0  0  0  0  0  0  0  0  0
    4.6953   20.5855   20.9190 C   0  0  0  0  0  0  0  0  0  0  0  0
    5.5067   21.6259   20.4639 C   0  0  0  0  0  0  0  0  0  0  0  0
    6.8515   21.6735   20.8266 C   0  0  0  0  0  0  0  0  0  0  0  0
    7.3885   20.6785   21.6406 C   0  0  0  0  0  0  0  0  0  0  0  0
    6.5799   19.6364   22.0950 C   0  0  0  0  0  0  0  0  0  0  0  0
 15 16  1  0  0  0
 16 14  1  0  0  0
 14  1  1  0  0  0
  1 18  1  0  0  0
 18 19  1  0  0  0
 19 20  2  0  0  0
 20 21  1  0  0  0
 21 22  2  0  0  0
 22 23  1  0  0  0
 23 24  2  0  0  0
  1  2  1  0  0  0
  2  4  1  0  0  0
  4  5  2  0  0  0
  5  6  1  0  0  0
  6  7  2  0  0  0
  7  8  1  0  0  0
  8  9  1  0  0  0
  9 10  2  0  0  0
 10 11  1  0  0  0
 11 12  1  0  0  0
 11 13  2  0  0  0
 24 19  1  0  0  0
 13  4  1  0  0  0
 13  8  1  0  0  0
 15 17  1  0  0  0
  2  3  1  0  0  0
M  END
> <minimizedAffinity>
-9.88219

$$$$
OCNT-2312434


 32 35  0  0  0  0  0  0  0  0999 V2000
    2.0885   19.2191   19.1444 C   0  0  0  0  0  0  0  0  0  0  0  0
    1.7767   19.4613   17.9720 O   0  0  0  0  0  0  0  0  0  0  0  0
    3.3907   19.4006   19.5896 N   0  0  0  0  0  0  0  0  0  0  0  0
    4.3969   19.8963   18.6539 C   0  0  0  0  0  0  0  0  0  0  0  0
    5.1448   21.0879   19.2451 C   0  0  0  0  0  0  0  0  0  0  0  0
    5.6217   20.8232   20.6518 C   0  0  0  0  0  0  0  0  0  0  0  0
    6.6320   21.6246   21.2008 C   0  0  0  0  0  0  0  0  0  0  0  0
    7.0409   21.4418   22.5209 C   0  0  0  0  0  0  0  0  0  0  0  0
    6.4336   20.4694   23.3102 C   0  0  0  0  0  0  0  0  0  0  0  0
    5.4205   19.6729   22.7789 C   0  0  0  0  0  0  0  0  0  0  0  0
    5.0065   19.8350   21.4448 C   0  0  0  0  0  0  0  0  0  0  0  0
    3.9151   18.9306   20.8844 C   0  0  0  0  0  0  0  0  0  0  0  0
    4.3566   17.4513   20.7112 C   0  0  0  0  0  0  0  0  0  0  0  0
    4.2678   16.6153   21.7890 N   0  0  0  0  0  0  0  0  0  0  0  0
    4.8835   17.0415   19.6762 O   0  0  0  0  0  0  0  0  0  0  0  0
    4.5278   15.6484   21.6444 H   0  0  0  0  0  0  0  0  0  0  0  0
    3.7061   16.8391   22.6015 H   0  0  0  0  0  0  0  0  0  0  0  0
    1.0162   18.7137   20.0976 C   0  0  0  0  0  0  0  0  0  0  0  0
    0.8929   15.1238   20.7092 C   0  0  0  0  0  0  0  0  0  0  0  0
    1.2568   16.4168   21.0381 C   0  0  0  0  0  0  0  0  0  0  0  0
    0.8209   17.2685   20.0574 N   0  0  0  0  0  0  0  0  0  0  0  0
    0.2279   16.5466   19.0422 C   0  0  0  0  0  0  0  0  0  0  0  0
   -0.3135   16.9580   17.8124 C   0  0  0  0  0  0  0  0  0  0  0  0
   -0.9124   15.9977   16.9942 C   0  0  0  0  0  0  0  0  0  0  0  0
   -0.9770   14.6676   17.3875 C   0  0  0  0  0  0  0  0  0  0  0  0
   -0.4228   14.2614   18.6055 C   0  0  0  0  0  0  0  0  0  0  0  0
    0.2138   15.2038   19.4466 C   0  0  0  0  0  0  0  0  0  0  0  0
    0.2312   13.6454   22.4693 N   0  0  0  0  0  0  0  0  0  0  0  0
    1.1907   13.9788   21.5572 C   0  0  0  0  0  0  0  0  0  0  0  0
    2.2027   13.2952   21.4417 O   0  0  0  0  0  0  0  0  0  0  0  0
    0.3574   12.7485   22.9174 H   0  0  0  0  0  0  0  0  0  0  0  0
   -0.7151   13.9700   22.3322 H   0  0  0  0  0  0  0  0  0  0  0  0
 28 29  1  0  0  0
 29 30  2  0  0  0
 29 19  1  0  0  0
 19 20  2  0  0  0
 20 21  1  0  0  0
 21 18  1  0  0  0
 18  1  1  0  0  0
  1  2  2  0  0  0
  1  3  1  0  0  0
  3  4  1  0  0  0
  4  5  1  0  0  0
  5  6  1  0  0  0
  6  7  2  0  0  0
  7  8  1  0  0  0
  8  9  2  0  0  0
  9 10  1  0  0  0
 10 11  2  0  0  0
 11 12  1  0  0  0
 12 13  1  0  0  0
 13 14  1  0  0  0
 13 15  2  0  0  0
 21 22  1  0  0  0
 22 23  2  0  0  0
 23 24  1  0  0  0
 24 25  2  0  0  0
 25 26  1  0  0  0
 26 27  2  0  0  0
 27 19  1  0  0  0
 12  3  1  0  0  0
 27 22  1  0  0  0
 11  6  1  0  0  0
 28 31  1  0  0  0
 28 32  1  0  0  0
 14 16  1  0  0  0
 14 17  1  0  0  0
M  END
> <minimizedAffinity>
-4.91954

$$$$
OCNT-2312445


 27 30  0  0  0  0  0  0  0  0999 V2000
    1.8757   20.9977   19.5796 C   0  0  0  0  0  0  0  0  0  0  0  0
    1.4064   22.1193   19.7613 O   0  0  0  0  0  0  0  0  0  0  0  0
    3.1638   20.6715   20.0265 N   0  0  0  0  0  0  0  0  0  0  0  0
    3.8724   21.7215   20.7648 C   0  0  0  0  0  0  0  0  0  0  0  0
    5.0748   21.1637   21.5432 C   0  0  0  0  0  0  0  0  0  0  0  0
    5.8907   22.2944   22.1570 C   0  0  0  0  0  0  0  0  0  0  0  0
    5.9550   20.4123   20.6929 O   0  0  0  0  0  0  0  0  0  0  0  0
    5.2976   19.3449   19.9851 C   0  0  0  0  0  0  0  0  0  0  0  0
    4.0657   19.8496   19.2037 C   0  0  0  0  0  0  0  0  0  0  0  0
    0.2001   18.0343   18.2263 C   0  0  0  0  0  0  0  0  0  0  0  0
   -0.3188   19.0008   17.4493 N   0  0  0  0  0  0  0  0  0  0  0  0
    0.2801   20.1265   17.8581 N   0  0  0  0  0  0  0  0  0  0  0  0
    1.1065   19.9659   18.9311 C   0  0  0  0  0  0  0  0  0  0  0  0
    1.1106   18.6034   19.1585 C   0  0  0  0  0  0  0  0  0  0  0  0
    0.0695   20.9846   17.3604 H   0  0  0  0  0  0  0  0  0  0  0  0
   -1.2583   12.4559   17.6105 C   0  0  0  0  0  0  0  0  0  0  0  0
   -0.9078   13.9046   17.7763 C   0  0  0  0  0  0  0  0  0  0  0  0
   -0.3523   14.3676   18.9723 C   0  0  0  0  0  0  0  0  0  0  0  0
    0.0024   15.7133   19.1147 C   0  0  0  0  0  0  0  0  0  0  0  0
   -0.1788   16.6245   18.0635 C   0  0  0  0  0  0  0  0  0  0  0  0
   -0.7241   16.1495   16.8624 C   0  0  0  0  0  0  0  0  0  0  0  0
   -1.0796   14.8029   16.7186 C   0  0  0  0  0  0  0  0  0  0  0  0
    5.0346   18.1300   20.8549 C   0  0  0  0  0  0  0  0  0  0  0  0
    3.9370   17.2997   20.6927 C   0  0  0  0  0  0  0  0  0  0  0  0
    3.8812   16.0230   21.8269 S   0  0  0  0  0  0  0  0  0  0  0  0
    5.3373   16.5357   22.5528 C   0  0  0  0  0  0  0  0  0  0  0  0
    5.8489   17.6600   21.9436 C   0  0  0  0  0  0  0  0  0  0  0  0
 16 17  1  0  0  0
 17 18  1  0  0  0
 18 19  2  0  0  0
 19 20  1  0  0  0
 20 10  1  0  0  0
 10 11  2  0  0  0
 11 12  1  0  0  0
 12 13  1  0  0  0
 13  1  1  0  0  0
  1  2  2  0  0  0
  1  3  1  0  0  0
  3  4  1  0  0  0
  4  5  1  0  0  0
  5  6  1  0  0  0
  5  7  1  0  0  0
  7  8  1  0  0  0
  8 23  1  0  0  0
 23 24  2  0  0  0
 24 25  1  0  0  0
 25 26  1  0  0  0
 26 27  2  0  0  0
  8  9  1  0  0  0
 13 14  2  0  0  0
 20 21  2  0  0  0
 21 22  1  0  0  0
 22 17  2  0  0  0
 14 10  1  0  0  0
  9  3  1  0  0  0
 27 23  1  0  0  0
 12 15  1  0  0  0
M  END
> <minimizedAffinity>
-3.19698

$$$$
OCNT-2312476


 26 29  0  0  0  0  0  0  0  0999 V2000
    2.1046   15.3633   21.3696 C   0  0  0  0  0  0  0  0  0  0  0  0
    4.6560   18.0542   21.4544 C   0  0  0  0  0  0  0  0  0  0  0  0
    3.3458   17.6739   21.2390 C   0  0  0  0  0  0  0  0  0  0  0  0
    3.2985   16.2777   21.4749 C   0  0  0  0  0  0  0  0  0  0  0  0
    4.4992   15.8096   21.8468 N   0  0  0  0  0  0  0  0  0  0  0  0
    5.2898   16.8954   21.8230 N   0  0  0  0  0  0  0  0  0  0  0  0
    6.2611   16.7818   22.0876 H   0  0  0  0  0  0  0  0  0  0  0  0
    6.5609   21.8718   21.1818 C   0  0  0  0  0  0  0  0  0  0  0  0
    7.1195   20.8726   21.9750 C   0  0  0  0  0  0  0  0  0  0  0  0
    6.5015   19.6217   22.0666 C   0  0  0  0  0  0  0  0  0  0  0  0
    5.3155   19.3559   21.3669 C   0  0  0  0  0  0  0  0  0  0  0  0
    4.7702   20.3699   20.5667 C   0  0  0  0  0  0  0  0  0  0  0  0
    5.3871   21.6205   20.4762 C   0  0  0  0  0  0  0  0  0  0  0  0
    0.8146   15.9351   20.9536 N   0  0  0  0  0  0  0  0  0  0  0  0
    0.8360   16.9603   21.0493 H   0  0  0  0  0  0  0  0  0  0  0  0
    0.3166   15.6081   19.6749 C   0  0  0  0  0  0  0  0  0  0  0  0
   -0.1563   14.3059   19.4247 C   0  0  0  0  0  0  0  0  0  0  0  0
   -0.7428   13.9565   18.2075 C   0  0  0  0  0  0  0  0  0  0  0  0
   -0.8918   14.9113   17.2130 C   0  0  0  0  0  0  0  0  0  0  0  0
   -0.4566   16.2180   17.4347 C   0  0  0  0  0  0  0  0  0  0  0  0
    0.1452   16.5844   18.6570 C   0  0  0  0  0  0  0  0  0  0  0  0
    0.6023   17.9331   18.8213 N   0  0  0  0  0  0  0  0  0  0  0  0
    1.7837   18.4947   18.3672 C   0  0  0  0  0  0  0  0  0  0  0  0
    1.8083   19.8051   18.7798 C   0  0  0  0  0  0  0  0  0  0  0  0
    0.6115   19.9728   19.4832 C   0  0  0  0  0  0  0  0  0  0  0  0
   -0.1199   18.8596   19.5242 N   0  0  0  0  0  0  0  0  0  0  0  0
  8  9  2  0  0  0
  9 10  1  0  0  0
 10 11  2  0  0  0
 11  2  1  0  0  0
  2  3  2  0  0  0
  3  4  1  0  0  0
  4  1  1  0  0  0
  1 14  1  0  0  0
 14 16  1  0  0  0
 16 17  2  0  0  0
 17 18  1  0  0  0
 18 19  2  0  0  0
 19 20  1  0  0  0
 20 21  2  0  0  0
 21 22  1  0  0  0
 22 23  1  0  0  0
 23 24  2  0  0  0
 24 25  1  0  0  0
 25 26  2  0  0  0
  4  5  2  0  0  0
  5  6  1  0  0  0
 11 12  1  0  0  0
 12 13  2  0  0  0
 13  8  1  0  0  0
  6  2  1  0  0  0
 21 16  1  0  0  0
 26 22  1  0  0  0
 14 15  1  0  0  0
  6  7  1  0  0  0
M  END
> <minimizedAffinity>
-10.09730

$$$$
OCNT-2312480


 32 37  0  0  0  0  0  0  0  0999 V2000
    4.2052   13.5452   21.7578 O   0  0  0  0  0  0  0  0  0  0  0  0
    3.4890   14.5551   21.7371 C   0  0  0  0  0  0  0  0  0  0  0  0
    2.1640   14.4823   22.1378 N   0  0  0  0  0  0  0  0  0  0  0  0
    1.7059   13.1707   22.6036 C   0  0  0  0  0  0  0  0  0  0  0  0
    0.2319   13.1331   22.9985 C   0  0  0  0  0  0  0  0  0  0  0  0
   -0.6139   13.8407   21.9479 C   0  0  0  0  0  0  0  0  0  0  0  0
   -0.1908   15.3123   21.7852 C   0  0  0  0  0  0  0  0  0  0  0  0
    1.2308   15.5952   22.3187 C   0  0  0  0  0  0  0  0  0  0  0  0
   -0.3234   15.7534   20.3480 C   0  0  0  0  0  0  0  0  0  0  0  0
   -0.4827   17.0017   19.9660 N   0  0  0  0  0  0  0  0  0  0  0  0
   -0.5840   17.0705   18.5868 C   0  0  0  0  0  0  0  0  0  0  0  0
   -0.7553   18.2459   17.8289 C   0  0  0  0  0  0  0  0  0  0  0  0
   -0.8529   18.1659   16.4352 C   0  0  0  0  0  0  0  0  0  0  0  0
   -0.7843   16.9329   15.7918 C   0  0  0  0  0  0  0  0  0  0  0  0
   -0.6124   15.7532   16.5220 C   0  0  0  0  0  0  0  0  0  0  0  0
   -0.5128   15.8461   17.9218 C   0  0  0  0  0  0  0  0  0  0  0  0
   -0.2987   14.5937   19.0820 S   0  0  0  0  0  0  0  0  0  0  0  0
    4.1206   15.8558   21.2422 C   0  0  0  0  0  0  0  0  0  0  0  0
    3.0971   16.9269   20.8794 C   0  0  0  0  0  0  0  0  0  0  0  0
    3.7988   18.1279   20.2551 C   0  0  0  0  0  0  0  0  0  0  0  0
    4.9397   18.6031   21.0505 N   0  0  0  0  0  0  0  0  0  0  0  0
    5.1923   17.9035   22.3196 C   0  0  0  0  0  0  0  0  0  0  0  0
    5.2632   16.3907   22.1094 C   0  0  0  0  0  0  0  0  0  0  0  0
    5.5912   19.8084   20.7690 C   0  0  0  0  0  0  0  0  0  0  0  0
    6.9044   19.8203   20.7506 N   0  0  0  0  0  0  0  0  0  0  0  0
    7.4561   21.0201   20.4704 N   0  0  0  0  0  0  0  0  0  0  0  0
    8.7854   21.2096   20.4273 N   0  0  0  0  0  0  0  0  0  0  0  0
    8.9508   22.4968   20.1465 N   0  0  0  0  0  0  0  0  0  0  0  0
    7.7422   23.1398   20.0098 N   0  0  0  0  0  0  0  0  0  0  0  0
    6.8281   22.2148   20.2078 C   0  0  0  0  0  0  0  0  0  0  0  0
    5.4232   22.2103   20.2139 C   0  0  0  0  0  0  0  0  0  0  0  0
    4.7884   21.0616   20.4859 C   0  0  0  0  0  0  0  0  0  0  0  0
  1  2  2  0  0  0
  2 18  1  0  0  0
 18 19  1  0  0  0
 19 20  1  0  0  0
 20 21  1  0  0  0
 21 24  1  0  0  0
 24 25  2  0  0  0
 25 26  1  0  0  0
 26 27  1  0  0  0
 27 28  2  0  0  0
 28 29  1  0  0  0
 29 30  2  0  0  0
 30 31  1  0  0  0
 31 32  2  0  0  0
 21 22  1  0  0  0
 22 23  1  0  0  0
  2  3  1  0  0  0
  3  4  1  0  0  0
  4  5  1  0  0  0
  5  6  1  0  0  0
  6  7  1  0  0  0
  7  9  1  0  0  0
  9 10  2  0  0  0
 10 11  1  0  0  0
 11 12  2  0  0  0
 12 13  1  0  0  0
 13 14  2  0  0  0
 14 15  1  0  0  0
 15 16  2  0  0  0
 16 17  1  0  0  0
  7  8  1  0  0  0
 23 18  1  0  0  0
  8  3  1  0  0  0
 32 24  1  0  0  0
 17  9  1  0  0  0
 30 26  1  0  0  0
 16 11  1  0  0  0
M  END
> <minimizedAffinity>
9.27877

$$$$
OCNT-2312485


 32 34  0  0  0  0  0  0  0  0999 V2000
    4.7745   17.5649   21.7441 C   0  0  0  0  0  0  0  0  0  0  0  0
    5.6794   16.9357   21.2033 O   0  0  0  0  0  0  0  0  0  0  0  0
    4.7760   18.9183   22.0259 N   0  0  0  0  0  0  0  0  0  0  0  0
    4.0478   19.2429   22.6706 H   0  0  0  0  0  0  0  0  0  0  0  0
    5.6741   19.9174   21.5862 C   0  0  0  0  0  0  0  0  0  0  0  0
    6.9935   19.9790   22.0522 C   0  0  0  0  0  0  0  0  0  0  0  0
    7.8775   20.9465   21.5716 C   0  0  0  0  0  0  0  0  0  0  0  0
    7.4569   21.8599   20.6132 C   0  0  0  0  0  0  0  0  0  0  0  0
    6.1444   21.8165   20.1409 C   0  0  0  0  0  0  0  0  0  0  0  0
    5.2299   20.8592   20.6220 C   0  0  0  0  0  0  0  0  0  0  0  0
    3.8333   20.8632   20.1431 C   0  0  0  0  0  0  0  0  0  0  0  0
    3.1036   19.7974   19.8436 N   0  0  0  0  0  0  0  0  0  0  0  0
    1.8395   20.2573   19.5465 C   0  0  0  0  0  0  0  0  0  0  0  0
    0.7387   19.3254   19.2147 C   0  0  0  0  0  0  0  0  0  0  0  0
    1.8066   21.6291   19.6256 C   0  0  0  0  0  0  0  0  0  0  0  0
    3.0647   21.9986   20.0069 N   0  0  0  0  0  0  0  0  0  0  0  0
    3.3660   22.9398   20.2125 H   0  0  0  0  0  0  0  0  0  0  0  0
    3.5308   16.8561   22.2893 C   0  0  0  0  0  0  0  0  0  0  0  0
    1.6928   15.5533   21.2789 C   0  0  0  0  0  0  0  0  0  0  0  0
    1.6184   14.7862   22.2308 O   0  0  0  0  0  0  0  0  0  0  0  0
    2.5625   16.6170   21.2283 N   0  0  0  0  0  0  0  0  0  0  0  0
    2.7511   17.0511   20.3334 H   0  0  0  0  0  0  0  0  0  0  0  0
   -0.7781   14.8708   17.8314 C   0  0  0  0  0  0  0  0  0  0  0  0
   -0.5014   13.8385   18.7343 C   0  0  0  0  0  0  0  0  0  0  0  0
    0.3008   14.0763   19.8529 C   0  0  0  0  0  0  0  0  0  0  0  0
    0.8431   15.3447   20.0729 C   0  0  0  0  0  0  0  0  0  0  0  0
    0.5577   16.3878   19.1818 C   0  0  0  0  0  0  0  0  0  0  0  0
   -0.2508   16.1588   18.0623 C   0  0  0  0  0  0  0  0  0  0  0  0
   -2.0349   13.4308   16.3962 C   0  0  0  0  0  0  0  0  0  0  0  0
   -1.5553   14.7307   16.7084 O   0  0  0  0  0  0  0  0  0  0  0  0
   -0.5827   17.1215   17.1402 O   0  0  0  0  0  0  0  0  0  0  0  0
   -1.6618   17.9928   17.4514 C   0  0  0  0  0  0  0  0  0  0  0  0
 29 30  1  0  0  0
 30 23  1  0  0  0
 23 24  1  0  0  0
 24 25  2  0  0  0
 25 26  1  0  0  0
 26 19  1  0  0  0
 19 20  2  0  0  0
 19 21  1  0  0  0
 21 18  1  0  0  0
 18  1  1  0  0  0
  1  2  2  0  0  0
  1  3  1  0  0  0
  3  5  1  0  0  0
  5  6  2  0  0  0
  6  7  1  0  0  0
  7  8  2  0  0  0
  8  9  1  0  0  0
  9 10  2  0  0  0
 10 11  1  0  0  0
 11 12  2  0  0  0
 12 13  1  0  0  0
 13 14  1  0  0  0
 13 15  2  0  0  0
 15 16  1  0  0  0
 26 27  2  0  0  0
 27 28  1  0  0  0
 28 31  1  0  0  0
 31 32  1  0  0  0
 28 23  2  0  0  0
 10  5  1  0  0  0
 16 11  1  0  0  0
 21 22  1  0  0  0
  3  4  1  0  0  0
 16 17  1  0  0  0
M  END
> <minimizedAffinity>
-6.77598

$$$$
OCNT-2312493


 22 24  0  0  0  0  0  0  0  0999 V2000
    1.3572   19.5973   19.4645 C   0  0  0  0  0  0  0  0  0  0  0  0
    0.6426   19.7057   18.1189 C   0  0  0  0  0  0  0  0  0  0  0  0
    0.5978   18.4355   17.4489 O   0  0  0  0  0  0  0  0  0  0  0  0
   -1.6893   18.2774   17.5441 O   0  0  0  0  0  0  0  0  0  0  0  0
   -0.5818   17.7612   17.5488 C   0  0  0  0  0  0  0  0  0  0  0  0
   -0.3126   16.2829   17.6811 C   0  0  0  0  0  0  0  0  0  0  0  0
   -0.4007   15.7727   19.1138 C   0  0  0  0  0  0  0  0  0  0  0  0
   -0.2568   14.2442   19.3317 C   0  0  0  0  0  0  0  0  0  0  0  0
    0.5413   14.5650   20.6161 C   0  0  0  0  0  0  0  0  0  0  0  0
    1.5930   13.7578   20.8765 F   0  0  0  0  0  0  0  0  0  0  0  0
    0.8816   15.9277   19.9691 C   0  0  0  0  0  0  0  0  0  0  0  0
    2.7689   19.7327   19.3112 O   0  0  0  0  0  0  0  0  0  0  0  0
    3.6075   19.1574   20.2338 C   0  0  0  0  0  0  0  0  0  0  0  0
    3.4569   17.8730   20.7453 C   0  0  0  0  0  0  0  0  0  0  0  0
    4.3864   17.4251   21.6646 C   0  0  0  0  0  0  0  0  0  0  0  0
    5.4341   18.1535   22.0969 N   0  0  0  0  0  0  0  0  0  0  0  0
    5.5871   19.3925   21.6032 C   0  0  0  0  0  0  0  0  0  0  0  0
    6.6649   20.1528   22.0385 C   0  0  0  0  0  0  0  0  0  0  0  0
    6.8922   21.4495   21.5706 C   0  0  0  0  0  0  0  0  0  0  0  0
    6.0235   22.0077   20.6433 C   0  0  0  0  0  0  0  0  0  0  0  0
    4.9342   21.2652   20.1909 C   0  0  0  0  0  0  0  0  0  0  0  0
    4.6982   19.9516   20.6604 C   0  0  0  0  0  0  0  0  0  0  0  0
  4  5  2  0  0  0
  5  6  1  0  0  0
  6  7  1  0  0  0
  7  8  1  0  0  0
  8  9  1  0  0  0
  9 10  1  0  0  0
  9 11  1  0  0  0
  5  3  1  0  0  0
  3  2  1  0  0  0
  2  1  1  0  0  0
  1 12  1  0  0  0
 12 13  1  0  0  0
 13 14  2  0  0  0
 14 15  1  0  0  0
 15 16  2  0  0  0
 16 17  1  0  0  0
 17 18  2  0  0  0
 18 19  1  0  0  0
 19 20  2  0  0  0
 20 21  1  0  0  0
 21 22  2  0  0  0
 11  7  1  0  0  0
 22 13  1  0  0  0
 22 17  1  0  0  0
M  END
> <minimizedAffinity>
-10.63051

$$$$
OCNT-2312495


 27 30  0  0  0  0  0  0  0  0999 V2000
    3.7424   17.1731   21.9760 N   0  0  0  0  0  0  0  0  0  0  0  0
    3.7134   15.8364   21.6844 C   0  0  0  0  0  0  0  0  0  0  0  0
    4.6645   15.1484   21.3431 O   0  0  0  0  0  0  0  0  0  0  0  0
    2.8960   17.6457   22.2482 H   0  0  0  0  0  0  0  0  0  0  0  0
    4.8713   21.5510   20.3552 C   0  0  0  0  0  0  0  0  0  0  0  0
    6.1914   21.8147   20.7124 C   0  0  0  0  0  0  0  0  0  0  0  0
    6.9456   20.8749   21.4223 C   0  0  0  0  0  0  0  0  0  0  0  0
    6.3244   19.6673   21.7568 C   0  0  0  0  0  0  0  0  0  0  0  0
    6.7967   18.5800   22.4326 N   0  0  0  0  0  0  0  0  0  0  0  0
    5.9086   17.5887   22.5699 N   0  0  0  0  0  0  0  0  0  0  0  0
    4.8068   18.0434   21.9588 C   0  0  0  0  0  0  0  0  0  0  0  0
    5.0069   19.3544   21.4234 C   0  0  0  0  0  0  0  0  0  0  0  0
    4.2776   20.3271   20.7071 C   0  0  0  0  0  0  0  0  0  0  0  0
    7.7220   18.4551   22.8268 H   0  0  0  0  0  0  0  0  0  0  0  0
    2.6545   22.1147   19.6891 C   0  0  0  0  0  0  0  0  0  0  0  0
    4.0470   22.3981   19.6628 O   0  0  0  0  0  0  0  0  0  0  0  0
    2.3921   15.2284   21.8107 C   0  0  0  0  0  0  0  0  0  0  0  0
    1.7511   14.6945   22.9145 C   0  0  0  0  0  0  0  0  0  0  0  0
    0.5098   14.2450   22.5021 N   0  0  0  0  0  0  0  0  0  0  0  0
    0.3271   14.4691   21.1769 N   0  0  0  0  0  0  0  0  0  0  0  0
    1.4535   15.0551   20.7731 C   0  0  0  0  0  0  0  0  0  0  0  0
   -0.5035   13.6213   23.2848 C   0  0  0  0  0  0  0  0  0  0  0  0
   -0.9314   12.3129   23.0184 C   0  0  0  0  0  0  0  0  0  0  0  0
   -1.9288   11.7287   23.8057 C   0  0  0  0  0  0  0  0  0  0  0  0
   -2.5029   12.4411   24.8573 C   0  0  0  0  0  0  0  0  0  0  0  0
   -2.0827   13.7412   25.1276 C   0  0  0  0  0  0  0  0  0  0  0  0
   -1.0872   14.3314   24.3461 C   0  0  0  0  0  0  0  0  0  0  0  0
 15 16  1  0  0  0
 16  5  1  0  0  0
  5  6  2  0  0  0
  6  7  1  0  0  0
  7  8  2  0  0  0
  8  9  1  0  0  0
  9 10  1  0  0  0
 10 11  2  0  0  0
 11  1  1  0  0  0
  1  2  1  0  0  0
  2  3  2  0  0  0
  2 17  1  0  0  0
 17 18  2  0  0  0
 18 19  1  0  0  0
 19 22  1  0  0  0
 22 23  2  0  0  0
 23 24  1  0  0  0
 24 25  2  0  0  0
 25 26  1  0  0  0
 26 27  2  0  0  0
 19 20  1  0  0  0
 20 21  2  0  0  0
 11 12  1  0  0  0
 12 13  2  0  0  0
 13  5  1  0  0  0
 12  8  1  0  0  0
 21 17  1  0  0  0
 27 22  1  0  0  0
  9 14  1  0  0  0
  1  4  1  0  0  0
M  END
> <minimizedAffinity>
-5.75466

$$$$
OCNT-2312496


 22 25  0  0  0  0  0  0  0  0999 V2000
    3.9377   15.7686   21.9179 O   0  0  0  0  0  0  0  0  0  0  0  0
    3.6309   16.8621   21.4520 C   0  0  0  0  0  0  0  0  0  0  0  0
    2.5289   17.0609   20.6434 N   0  0  0  0  0  0  0  0  0  0  0  0
    2.2226   18.2337   19.8344 C   0  0  0  0  0  0  0  0  0  0  0  0
    1.2721   17.7220   18.7587 C   0  0  0  0  0  0  0  0  0  0  0  0
    0.5339   16.5808   19.4717 C   0  0  0  0  0  0  0  0  0  0  0  0
    1.6496   15.9482   20.3113 C   0  0  0  0  0  0  0  0  0  0  0  0
    4.4974   18.0216   21.7596 C   0  0  0  0  0  0  0  0  0  0  0  0
    4.8697   18.2414   23.0854 C   0  0  0  0  0  0  0  0  0  0  0  0
    5.6735   19.3330   23.4255 C   0  0  0  0  0  0  0  0  0  0  0  0
    6.0775   20.2045   22.3998 C   0  0  0  0  0  0  0  0  0  0  0  0
    7.0550   21.6200   22.4890 S   0  0  0  0  0  0  0  0  0  0  0  0
    6.9947   21.9892   20.8755 N   0  0  0  0  0  0  0  0  0  0  0  0
    6.2479   21.0741   20.2671 C   0  0  0  0  0  0  0  0  0  0  0  0
    5.6975   20.0199   21.0679 C   0  0  0  0  0  0  0  0  0  0  0  0
    4.8837   18.9101   20.7456 C   0  0  0  0  0  0  0  0  0  0  0  0
   -0.1939   15.6336   18.5505 C   0  0  0  0  0  0  0  0  0  0  0  0
   -0.3041   14.2778   18.8953 C   0  0  0  0  0  0  0  0  0  0  0  0
   -0.9731   13.3797   18.0610 C   0  0  0  0  0  0  0  0  0  0  0  0
   -1.5420   13.8241   16.8704 C   0  0  0  0  0  0  0  0  0  0  0  0
   -1.4422   15.1664   16.5139 C   0  0  0  0  0  0  0  0  0  0  0  0
   -0.7735   16.0652   17.3478 C   0  0  0  0  0  0  0  0  0  0  0  0
  1  2  2  0  0  0
  2  8  1  0  0  0
  8  9  2  0  0  0
  9 10  1  0  0  0
 10 11  2  0  0  0
 11 12  1  0  0  0
 12 13  1  0  0  0
 13 14  2  0  0  0
 14 15  1  0  0  0
 15 16  2  0  0  0
  2  3  1  0  0  0
  3  4  1  0  0  0
  4  5  1  0  0  0
  5  6  1  0  0  0
  6 17  1  0  0  0
 17 18  2  0  0  0
 18 19  1  0  0  0
 19 20  2  0  0  0
 20 21  1  0  0  0
 21 22  2  0  0  0
  6  7  1  0  0  0
 16  8  1  0  0  0
  7  3  1  0  0  0
 15 11  1  0  0  0
 22 17  1  0  0  0
M  END
> <minimizedAffinity>
-6.49828

$$$$
OCNT-2312504


 32 35  0  0  0  0  0  0  0  0999 V2000
    3.7842   17.1202   21.4283 C   0  0  0  0  0  0  0  0  0  0  0  0
    3.9944   16.0911   22.0585 O   0  0  0  0  0  0  0  0  0  0  0  0
    2.7541   17.3045   20.5207 N   0  0  0  0  0  0  0  0  0  0  0  0
    2.8215   18.1133   19.9215 H   0  0  0  0  0  0  0  0  0  0  0  0
    5.5550   22.3768   19.7273 C   0  0  0  0  0  0  0  0  0  0  0  0
    6.1515   21.5780   20.8541 C   0  0  0  0  0  0  0  0  0  0  0  0
    7.2353   22.1327   21.5722 C   0  0  0  0  0  0  0  0  0  0  0  0
    7.8416   21.4480   22.6240 C   0  0  0  0  0  0  0  0  0  0  0  0
    7.3848   20.1887   22.9906 C   0  0  0  0  0  0  0  0  0  0  0  0
    7.9642   19.5246   23.9990 F   0  0  0  0  0  0  0  0  0  0  0  0
    6.3152   19.6339   22.2918 C   0  0  0  0  0  0  0  0  0  0  0  0
    5.6904   20.2932   21.2361 C   0  0  0  0  0  0  0  0  0  0  0  0
    4.6661   19.4189   20.7737 C   0  0  0  0  0  0  0  0  0  0  0  0
    4.6590   18.2741   21.5560 C   0  0  0  0  0  0  0  0  0  0  0  0
    5.6953   18.4182   22.4509 N   0  0  0  0  0  0  0  0  0  0  0  0
    6.0035   17.7196   23.1127 H   0  0  0  0  0  0  0  0  0  0  0  0
    1.7030   16.4103   20.2202 C   0  0  0  0  0  0  0  0  0  0  0  0
    1.3921   15.2886   20.9853 C   0  0  0  0  0  0  0  0  0  0  0  0
    0.3372   14.4545   20.6145 C   0  0  0  0  0  0  0  0  0  0  0  0
   -0.4228   14.7398   19.4808 C   0  0  0  0  0  0  0  0  0  0  0  0
   -0.1505   15.8710   18.6938 C   0  0  0  0  0  0  0  0  0  0  0  0
    0.9255   16.6945   19.0843 C   0  0  0  0  0  0  0  0  0  0  0  0
   -1.0023   16.1640   17.4622 C   0  0  0  0  0  0  0  0  0  0  0  0
   -1.4979   14.8951   16.7643 C   0  0  0  0  0  0  0  0  0  0  0  0
   -2.1303   17.0340   17.7431 N   0  0  0  0  0  0  0  0  0  0  0  0
   -2.0806   18.2117   17.0431 C   0  0  0  0  0  0  0  0  0  0  0  0
   -2.9463   19.0673   17.0639 O   0  0  0  0  0  0  0  0  0  0  0  0
   -0.9392   18.2423   16.3232 N   0  0  0  0  0  0  0  0  0  0  0  0
   -0.2611   17.0680   16.4447 C   0  0  0  0  0  0  0  0  0  0  0  0
    0.7520   16.7885   15.8187 O   0  0  0  0  0  0  0  0  0  0  0  0
   -2.9485   16.7806   18.2790 H   0  0  0  0  0  0  0  0  0  0  0  0
   -0.6895   18.9832   15.6913 H   0  0  0  0  0  0  0  0  0  0  0  0
  5  6  1  0  0  0
  6  7  1  0  0  0
  7  8  2  0  0  0
  8  9  1  0  0  0
  9 10  1  0  0  0
  9 11  2  0  0  0
 11 12  1  0  0  0
 12 13  1  0  0  0
 13 14  2  0  0  0
 14  1  1  0  0  0
  1  2  2  0  0  0
  1  3  1  0  0  0
  3 17  1  0  0  0
 17 18  1  0  0  0
 18 19  2  0  0  0
 19 20  1  0  0  0
 20 21  2  0  0  0
 21 23  1  0  0  0
 23 24  1  0  0  0
 23 25  1  0  0  0
 25 26  1  0  0  0
 26 27  2  0  0  0
 26 28  1  0  0  0
 28 29  1  0  0  0
 29 30  2  0  0  0
 21 22  1  0  0  0
 14 15  1  0  0  0
 12  6  2  0  0  0
 22 17  2  0  0  0
 15 11  1  0  0  0
 29 23  1  0  0  0
  3  4  1  0  0  0
 25 31  1  0  0  0
 28 32  1  0  0  0
 15 16  1  0  0  0
M  END
> <minimizedAffinity>
-3.27841

$$$$
OCNT-2312517


 24 26  0  0  0  0  0  0  0  0999 V2000
    1.1500   16.4763   20.0447 C   0  0  0  0  0  0  0  0  0  0  0  0
    0.0573   17.1148   17.9076 C   0  0  0  0  0  0  0  0  0  0  0  0
   -0.4863   18.2699   17.0053 C   0  0  0  0  0  0  0  0  0  0  0  0
   -1.4438   18.1071   16.2431 O   0  0  0  0  0  0  0  0  0  0  0  0
    0.1212   19.4940   16.9832 N   0  0  0  0  0  0  0  0  0  0  0  0
    1.2185   19.9288   17.8120 C   0  0  0  0  0  0  0  0  0  0  0  0
    0.8415   19.9916   19.2886 C   0  0  0  0  0  0  0  0  0  0  0  0
    0.1654   18.7160   19.7994 C   0  0  0  0  0  0  0  0  0  0  0  0
    0.7658   17.5602   19.1386 N   0  0  0  0  0  0  0  0  0  0  0  0
   -0.3192   20.1588   16.3591 H   0  0  0  0  0  0  0  0  0  0  0  0
   -0.6858   14.6532   17.5266 C   0  0  0  0  0  0  0  0  0  0  0  0
   -1.0304   16.0248   18.0922 C   0  0  0  0  0  0  0  0  0  0  0  0
    2.4358   16.7628   20.7347 C   0  0  0  0  0  0  0  0  0  0  0  0
    3.2705   16.0472   21.5668 C   0  0  0  0  0  0  0  0  0  0  0  0
    3.1367   14.6616   22.0593 C   0  0  0  0  0  0  0  0  0  0  0  0
    4.3544   16.8234   21.9094 N   0  0  0  0  0  0  0  0  0  0  0  0
    4.1462   17.9685   21.2858 C   0  0  0  0  0  0  0  0  0  0  0  0
    2.9890   18.0003   20.5507 O   0  0  0  0  0  0  0  0  0  0  0  0
    4.9681   19.1759   21.2752 C   0  0  0  0  0  0  0  0  0  0  0  0
    6.1403   19.2852   22.0391 C   0  0  0  0  0  0  0  0  0  0  0  0
    6.9065   20.4541   22.0092 C   0  0  0  0  0  0  0  0  0  0  0  0
    6.5105   21.5284   21.2154 C   0  0  0  0  0  0  0  0  0  0  0  0
    5.3495   21.4367   20.4511 C   0  0  0  0  0  0  0  0  0  0  0  0
    4.5843   20.2679   20.4815 C   0  0  0  0  0  0  0  0  0  0  0  0
 11 12  1  0  0  0
 12  2  1  0  0  0
  2  3  1  0  0  0
  3  4  2  0  0  0
  3  5  1  0  0  0
  5  6  1  0  0  0
  6  7  1  0  0  0
  7  8  1  0  0  0
  8  9  1  0  0  0
  9  1  1  0  0  0
  1 13  1  0  0  0
 13 14  2  0  0  0
 14 15  1  0  0  0
 14 16  1  0  0  0
 16 17  2  0  0  0
 17 19  1  0  0  0
 19 20  2  0  0  0
 20 21  1  0  0  0
 21 22  2  0  0  0
 22 23  1  0  0  0
 23 24  2  0  0  0
 17 18  1  0  0  0
  9  2  1  0  0  0
 18 13  1  0  0  0
 24 19  1  0  0  0
  5 10  1  0  0  0
M  END
> <minimizedAffinity>
-10.21155

$$$$
OCNT-2312522


 27 30  0  0  0  0  0  0  0  0999 V2000
    4.0310   16.5563   22.0240 N   0  0  0  0  0  0  0  0  0  0  0  0
    5.1470   16.5543   21.0656 C   0  0  0  0  0  0  0  0  0  0  0  0
    6.4094   17.1893   21.6954 C   0  0  0  0  0  0  0  0  0  0  0  0
    6.1527   18.5386   22.2335 N   0  0  0  0  0  0  0  0  0  0  0  0
    5.0604   18.4719   23.2250 C   0  0  0  0  0  0  0  0  0  0  0  0
    3.7636   17.8675   22.6366 C   0  0  0  0  0  0  0  0  0  0  0  0
    1.0213   15.9246   20.1498 C   0  0  0  0  0  0  0  0  0  0  0  0
    0.6789   14.6541   20.5578 C   0  0  0  0  0  0  0  0  0  0  0  0
    1.5084   14.0760   21.4829 C   0  0  0  0  0  0  0  0  0  0  0  0
    2.5994   14.6788   21.9824 N   0  0  0  0  0  0  0  0  0  0  0  0
    2.8838   15.9158   21.5470 C   0  0  0  0  0  0  0  0  0  0  0  0
    2.1228   16.5447   20.6351 N   0  0  0  0  0  0  0  0  0  0  0  0
   -0.6623   14.7503   18.1153 F   0  0  0  0  0  0  0  0  0  0  0  0
   -0.5484   16.0867   18.1718 C   0  0  0  0  0  0  0  0  0  0  0  0
   -1.2670   16.8315   17.2342 C   0  0  0  0  0  0  0  0  0  0  0  0
   -1.2048   18.2214   17.2545 C   0  0  0  0  0  0  0  0  0  0  0  0
   -0.4263   18.8592   18.2154 C   0  0  0  0  0  0  0  0  0  0  0  0
    0.2900   18.1045   19.1514 C   0  0  0  0  0  0  0  0  0  0  0  0
    0.2526   16.6951   19.1512 C   0  0  0  0  0  0  0  0  0  0  0  0
    7.3583   19.2067   22.7467 C   0  0  0  0  0  0  0  0  0  0  0  0
    7.3347   20.7406   22.8389 C   0  0  0  0  0  0  0  0  0  0  0  0
    6.4091   21.3239   21.8052 C   0  0  0  0  0  0  0  0  0  0  0  0
    6.8890   21.7417   20.5668 C   0  0  0  0  0  0  0  0  0  0  0  0
    6.0891   22.2521   19.6012 N   0  0  0  0  0  0  0  0  0  0  0  0
    4.7785   22.3280   19.9209 C   0  0  0  0  0  0  0  0  0  0  0  0
    4.2898   21.9113   21.1464 C   0  0  0  0  0  0  0  0  0  0  0  0
    5.0891   21.3997   22.1105 N   0  0  0  0  0  0  0  0  0  0  0  0
 13 14  1  0  0  0
 14 15  2  0  0  0
 15 16  1  0  0  0
 16 17  2  0  0  0
 17 18  1  0  0  0
 18 19  2  0  0  0
 19  7  1  0  0  0
  7  8  1  0  0  0
  8  9  2  0  0  0
  9 10  1  0  0  0
 10 11  2  0  0  0
 11  1  1  0  0  0
  1  2  1  0  0  0
  2  3  1  0  0  0
  3  4  1  0  0  0
  4 20  1  0  0  0
 20 21  1  0  0  0
 21 22  1  0  0  0
 22 23  2  0  0  0
 23 24  1  0  0  0
 24 25  2  0  0  0
 25 26  1  0  0  0
 26 27  2  0  0  0
  4  5  1  0  0  0
  5  6  1  0  0  0
 11 12  1  0  0  0
 19 14  1  0  0  0
 12  7  2  0  0  0
  6  1  1  0  0  0
 27 22  1  0  0  0
M  END
> <minimizedAffinity>
-6.95452

$$$$
OCNT-2312525


 24 27  0  0  0  0  0  0  0  0999 V2000
    0.7403   18.7451   18.6247 C   0  0  0  0  0  0  0  0  0  0  0  0
    0.2220   19.9500   18.9127 N   0  0  0  0  0  0  0  0  0  0  0  0
    1.2968   20.6445   19.4624 O   0  0  0  0  0  0  0  0  0  0  0  0
    2.3689   19.8015   19.4303 C   0  0  0  0  0  0  0  0  0  0  0  0
    2.0717   18.6106   18.9586 N   0  0  0  0  0  0  0  0  0  0  0  0
    3.6224   20.2862   19.9938 C   0  0  0  0  0  0  0  0  0  0  0  0
    3.9807   21.6077   19.7049 C   0  0  0  0  0  0  0  0  0  0  0  0
    5.1721   22.0924   20.1977 C   0  0  0  0  0  0  0  0  0  0  0  0
    6.0148   21.3629   20.9531 N   0  0  0  0  0  0  0  0  0  0  0  0
    5.6741   20.1013   21.2605 C   0  0  0  0  0  0  0  0  0  0  0  0
    6.5429   19.3782   22.0562 C   0  0  0  0  0  0  0  0  0  0  0  0
    6.2237   18.0840   22.4160 C   0  0  0  0  0  0  0  0  0  0  0  0
    5.0910   17.4709   22.0361 N   0  0  0  0  0  0  0  0  0  0  0  0
    4.2496   18.1863   21.2556 C   0  0  0  0  0  0  0  0  0  0  0  0
    4.4802   19.5032   20.8155 C   0  0  0  0  0  0  0  0  0  0  0  0
    0.3511   17.4274   16.5160 C   0  0  0  0  0  0  0  0  0  0  0  0
   -0.0627   17.6267   17.9940 C   0  0  0  0  0  0  0  0  0  0  0  0
   -1.5747   17.9553   17.9739 C   0  0  0  0  0  0  0  0  0  0  0  0
    0.2140   16.4131   18.8998 C   0  0  0  0  0  0  0  0  0  0  0  0
    1.1015   16.5088   19.9881 C   0  0  0  0  0  0  0  0  0  0  0  0
    1.3288   15.4000   20.7916 C   0  0  0  0  0  0  0  0  0  0  0  0
    0.7434   14.2028   20.5993 N   0  0  0  0  0  0  0  0  0  0  0  0
   -0.0974   14.1105   19.5507 C   0  0  0  0  0  0  0  0  0  0  0  0
   -0.3882   15.1633   18.6913 C   0  0  0  0  0  0  0  0  0  0  0  0
 16 17  1  0  0  0
 17 18  1  0  0  0
 17 19  1  0  0  0
 19 20  2  0  0  0
 20 21  1  0  0  0
 21 22  2  0  0  0
 22 23  1  0  0  0
 23 24  2  0  0  0
 17  1  1  0  0  0
  1  2  2  0  0  0
  2  3  1  0  0  0
  3  4  1  0  0  0
  4  6  1  0  0  0
  6  7  2  0  0  0
  7  8  1  0  0  0
  8  9  2  0  0  0
  9 10  1  0  0  0
 10 11  2  0  0  0
 11 12  1  0  0  0
 12 13  2  0  0  0
 13 14  1  0  0  0
 14 15  2  0  0  0
  4  5  2  0  0  0
 24 19  1  0  0  0
  5  1  1  0  0  0
 15  6  1  0  0  0
 15 10  1  0  0  0
M  END
> <minimizedAffinity>
-10.56361

$$$$
OCNT-2312529


 23 25  0  0  0  0  0  0  0  0999 V2000
    3.8961   18.2326   18.8932 O   0  0  0  0  0  0  0  0  0  0  0  0
    3.0541   18.8839   19.4945 C   0  0  0  0  0  0  0  0  0  0  0  0
    3.2475   20.0165   20.2494 N   0  0  0  0  0  0  0  0  0  0  0  0
    1.7102   18.5613   19.4625 N   0  0  0  0  0  0  0  0  0  0  0  0
    2.4140   20.5228   20.4953 H   0  0  0  0  0  0  0  0  0  0  0  0
    1.2275   18.7010   20.3422 H   0  0  0  0  0  0  0  0  0  0  0  0
    1.2651   17.3361   18.8050 C   0  0  0  0  0  0  0  0  0  0  0  0
   -0.0776   17.5340   18.0883 C   0  0  0  0  0  0  0  0  0  0  0  0
   -0.5822   16.2007   17.5477 C   0  0  0  0  0  0  0  0  0  0  0  0
   -0.8515   15.2216   18.6875 C   0  0  0  0  0  0  0  0  0  0  0  0
    0.2375   15.1932   19.7257 C   0  0  0  0  0  0  0  0  0  0  0  0
    0.2624   14.1690   20.6782 C   0  0  0  0  0  0  0  0  0  0  0  0
    1.2333   14.1691   21.6729 C   0  0  0  0  0  0  0  0  0  0  0  0
    2.1476   15.2057   21.6942 C   0  0  0  0  0  0  0  0  0  0  0  0
    2.1533   16.2203   20.8036 N   0  0  0  0  0  0  0  0  0  0  0  0
    1.1997   16.2038   19.8258 C   0  0  0  0  0  0  0  0  0  0  0  0
    4.4826   20.5979   20.5568 C   0  0  0  0  0  0  0  0  0  0  0  0
    5.3605   19.8520   21.3322 C   0  0  0  0  0  0  0  0  0  0  0  0
    6.5998   20.4027   21.6434 C   0  0  0  0  0  0  0  0  0  0  0  0
    7.8230   19.4218   22.7001 Br  0  0  0  0  0  0  0  0  0  0  0  0
    6.9448   21.6640   21.1851 C   0  0  0  0  0  0  0  0  0  0  0  0
    6.0133   22.3301   20.4168 C   0  0  0  0  0  0  0  0  0  0  0  0
    4.8053   21.8199   20.0975 N   0  0  0  0  0  0  0  0  0  0  0  0
  1  2  2  0  0  0
  2  3  1  0  0  0
  3 17  1  0  0  0
 17 18  2  0  0  0
 18 19  1  0  0  0
 19 20  1  0  0  0
 19 21  2  0  0  0
 21 22  1  0  0  0
 22 23  2  0  0  0
  2  4  1  0  0  0
  4  7  1  0  0  0
  7  8  1  0  0  0
  8  9  1  0  0  0
  9 10  1  0  0  0
 10 11  1  0  0  0
 11 12  1  0  0  0
 12 13  2  0  0  0
 13 14  1  0  0  0
 14 15  2  0  0  0
 15 16  1  0  0  0
 23 17  1  0  0  0
 16  7  1  0  0  0
 16 11  2  0  0  0
  3  5  1  0  0  0
  4  6  1  0  0  0
M  END
> <minimizedAffinity>
-8.43974

$$$$
OCNT-2312546


 31 34  0  0  0  0  0  0  0  0999 V2000
    3.7672   16.3459   22.0550 N   0  0  0  0  0  0  0  0  0  0  0  0
    4.5056   17.3021   21.3940 C   0  0  0  0  0  0  0  0  0  0  0  0
    4.2116   17.8702   20.3512 O   0  0  0  0  0  0  0  0  0  0  0  0
    5.6678   17.5774   22.0825 N   0  0  0  0  0  0  0  0  0  0  0  0
    4.0209   16.2042   23.0208 H   0  0  0  0  0  0  0  0  0  0  0  0
    6.0444   16.8321   22.6477 H   0  0  0  0  0  0  0  0  0  0  0  0
    6.6215   18.5289   21.5536 C   0  0  0  0  0  0  0  0  0  0  0  0
    7.7091   18.9267   22.5748 C   0  0  0  0  0  0  0  0  0  0  0  0
    7.1668   20.1349   23.3536 C   0  0  0  0  0  0  0  0  0  0  0  0
    6.2692   20.7647   22.3348 C   0  0  0  0  0  0  0  0  0  0  0  0
    5.7333   22.0422   22.3429 C   0  0  0  0  0  0  0  0  0  0  0  0
    4.8796   22.4112   21.2995 C   0  0  0  0  0  0  0  0  0  0  0  0
    4.5736   21.4947   20.2847 C   0  0  0  0  0  0  0  0  0  0  0  0
    3.7360   21.8324   19.2611 O   0  0  0  0  0  0  0  0  0  0  0  0
    5.1033   20.2077   20.2834 C   0  0  0  0  0  0  0  0  0  0  0  0
    5.9574   19.8549   21.3160 C   0  0  0  0  0  0  0  0  0  0  0  0
    3.4711   22.7600   19.3716 H   0  0  0  0  0  0  0  0  0  0  0  0
    0.6706   15.4823   20.1058 C   0  0  0  0  0  0  0  0  0  0  0  0
    0.2497   14.3720   20.8533 C   0  0  0  0  0  0  0  0  0  0  0  0
    0.9805   13.9329   21.9566 C   0  0  0  0  0  0  0  0  0  0  0  0
    2.1424   14.6052   22.3344 C   0  0  0  0  0  0  0  0  0  0  0  0
    2.5807   15.7238   21.6175 C   0  0  0  0  0  0  0  0  0  0  0  0
    1.8462   16.1479   20.5058 C   0  0  0  0  0  0  0  0  0  0  0  0
   -0.4541   17.3166   18.7574 C   0  0  0  0  0  0  0  0  0  0  0  0
   -1.1848   17.7013   17.6241 C   0  0  0  0  0  0  0  0  0  0  0  0
   -1.5836   16.7544   16.6783 C   0  0  0  0  0  0  0  0  0  0  0  0
   -1.2568   15.4154   16.8533 C   0  0  0  0  0  0  0  0  0  0  0  0
   -0.5258   15.0223   17.9740 C   0  0  0  0  0  0  0  0  0  0  0  0
   -0.1075   15.9575   18.9422 C   0  0  0  0  0  0  0  0  0  0  0  0
    0.6663   19.3528   19.3219 C   0  0  0  0  0  0  0  0  0  0  0  0
   -0.0403   18.1911   19.7330 O   0  0  0  0  0  0  0  0  0  0  0  0
 30 31  1  0  0  0
 31 24  1  0  0  0
 24 25  2  0  0  0
 25 26  1  0  0  0
 26 27  2  0  0  0
 27 28  1  0  0  0
 28 29  2  0  0  0
 29 18  1  0  0  0
 18 19  1  0  0  0
 19 20  2  0  0  0
 20 21  1  0  0  0
 21 22  2  0  0  0
 22  1  1  0  0  0
  1  2  1  0  0  0
  2  3  2  0  0  0
  2  4  1  0  0  0
  4  7  1  0  0  0
  7  8  1  0  0  0
  8  9  1  0  0  0
  9 10  1  0  0  0
 10 11  1  0  0  0
 11 12  2  0  0  0
 12 13  1  0  0  0
 13 14  1  0  0  0
 13 15  2  0  0  0
 15 16  1  0  0  0
 22 23  1  0  0  0
 29 24  1  0  0  0
 23 18  2  0  0  0
 16  7  1  0  0  0
 16 10  2  0  0  0
  1  5  1  0  0  0
  4  6  1  0  0  0
 14 17  1  0  0  0
M  END
> <minimizedAffinity>
-7.46487

$$$$
OCNT-2312554


 25 28  0  0  0  0  0  0  0  0999 V2000
    3.5296   14.9575   22.0150 O   0  0  0  0  0  0  0  0  0  0  0  0
    2.8259   15.8762   21.6137 C   0  0  0  0  0  0  0  0  0  0  0  0
    3.0687   17.2074   21.8860 N   0  0  0  0  0  0  0  0  0  0  0  0
    2.6515   17.8961   21.2745 H   0  0  0  0  0  0  0  0  0  0  0  0
    1.6532   15.5795   20.7488 C   0  0  0  0  0  0  0  0  0  0  0  0
    1.0090   14.3443   20.7816 C   0  0  0  0  0  0  0  0  0  0  0  0
   -0.0653   14.1593   19.9349 C   0  0  0  0  0  0  0  0  0  0  0  0
   -0.5180   15.1037   19.0840 N   0  0  0  0  0  0  0  0  0  0  0  0
    0.1324   16.2973   19.0459 C   0  0  0  0  0  0  0  0  0  0  0  0
    1.2225   16.5708   19.8601 C   0  0  0  0  0  0  0  0  0  0  0  0
   -0.3518   17.2725   18.1294 N   0  0  0  0  0  0  0  0  0  0  0  0
   -1.6733   17.6337   17.9667 C   0  0  0  0  0  0  0  0  0  0  0  0
   -1.6853   18.6026   16.9938 C   0  0  0  0  0  0  0  0  0  0  0  0
   -0.4183   18.8544   16.5466 N   0  0  0  0  0  0  0  0  0  0  0  0
    0.3567   18.0453   17.2377 C   0  0  0  0  0  0  0  0  0  0  0  0
    4.2756   17.6047   22.5963 C   0  0  0  0  0  0  0  0  0  0  0  0
    5.4202   17.9343   21.6333 C   0  0  0  0  0  0  0  0  0  0  0  0
    5.0426   17.7042   20.1516 C   0  0  0  0  0  0  0  0  0  0  0  0
    4.4604   19.0261   19.6290 C   0  0  0  0  0  0  0  0  0  0  0  0
    5.1930   20.0180   20.4762 C   0  0  0  0  0  0  0  0  0  0  0  0
    5.3273   21.3797   20.2661 C   0  0  0  0  0  0  0  0  0  0  0  0
    6.0316   22.1295   21.2103 C   0  0  0  0  0  0  0  0  0  0  0  0
    6.5794   21.5156   22.3474 C   0  0  0  0  0  0  0  0  0  0  0  0
    6.4286   20.1434   22.5579 C   0  0  0  0  0  0  0  0  0  0  0  0
    5.7316   19.4058   21.6142 C   0  0  0  0  0  0  0  0  0  0  0  0
  1  2  2  0  0  0
  2  3  1  0  0  0
  3 16  1  0  0  0
 16 17  1  0  0  0
 17 18  1  0  0  0
 18 19  1  0  0  0
 19 20  1  0  0  0
 20 21  2  0  0  0
 21 22  1  0  0  0
 22 23  2  0  0  0
 23 24  1  0  0  0
 24 25  2  0  0  0
  2  5  1  0  0  0
  5  6  2  0  0  0
  6  7  1  0  0  0
  7  8  2  0  0  0
  8  9  1  0  0  0
  9 11  1  0  0  0
 11 12  1  0  0  0
 12 13  2  0  0  0
 13 14  1  0  0  0
 14 15  2  0  0  0
  9 10  2  0  0  0
 25 17  1  0  0  0
 10  5  1  0  0  0
 25 20  1  0  0  0
 15 11  1  0  0  0
  3  4  1  0  0  0
M  END
> <minimizedAffinity>
-10.40047

$$$$
OCNT-2312559


 26 30  0  0  0  0  0  0  0  0999 V2000
    2.1059   17.0795   20.2336 C   0  0  0  0  0  0  0  0  0  0  0  0
    2.0182   15.8629   20.9054 C   0  0  0  0  0  0  0  0  0  0  0  0
    2.9782   15.5213   21.8532 C   0  0  0  0  0  0  0  0  0  0  0  0
    4.0257   16.3960   22.1141 C   0  0  0  0  0  0  0  0  0  0  0  0
    4.0743   17.5888   21.4111 C   0  0  0  0  0  0  0  0  0  0  0  0
    3.1151   17.9338   20.5078 N   0  0  0  0  0  0  0  0  0  0  0  0
   -0.8456   15.4858   15.6057 O   0  0  0  0  0  0  0  0  0  0  0  0
   -0.4710   16.3494   16.6670 C   0  0  0  0  0  0  0  0  0  0  0  0
   -1.3905   16.1933   17.8582 C   0  0  0  0  0  0  0  0  0  0  0  0
   -1.2593   17.5238   18.6042 C   0  0  0  0  0  0  0  0  0  0  0  0
   -0.2559   17.4224   19.7914 C   0  0  0  0  0  0  0  0  0  0  0  0
    1.1324   17.4500   19.3017 N   0  0  0  0  0  0  0  0  0  0  0  0
    1.4684   18.6100   18.4518 C   0  0  0  0  0  0  0  0  0  0  0  0
    0.2082   19.3761   17.9787 C   0  0  0  0  0  0  0  0  0  0  0  0
   -0.9329   18.5437   17.5617 N   0  0  0  0  0  0  0  0  0  0  0  0
   -0.6621   17.8170   16.3061 C   0  0  0  0  0  0  0  0  0  0  0  0
   -0.8048   14.5768   15.9488 H   0  0  0  0  0  0  0  0  0  0  0  0
    5.1119   18.5426   21.6280 N   0  0  0  0  0  0  0  0  0  0  0  0
    6.1848   18.3009   22.4636 C   0  0  0  0  0  0  0  0  0  0  0  0
    7.0819   19.2574   22.4401 N   0  0  0  0  0  0  0  0  0  0  0  0
    6.5517   20.2082   21.6139 C   0  0  0  0  0  0  0  0  0  0  0  0
    7.0924   21.4579   21.2704 C   0  0  0  0  0  0  0  0  0  0  0  0
    6.3565   22.3180   20.4528 C   0  0  0  0  0  0  0  0  0  0  0  0
    5.0941   21.9477   19.9986 C   0  0  0  0  0  0  0  0  0  0  0  0
    4.5385   20.7041   20.3273 C   0  0  0  0  0  0  0  0  0  0  0  0
    5.3024   19.8227   21.1142 C   0  0  0  0  0  0  0  0  0  0  0  0
  7  8  1  0  0  0
  8  9  1  0  0  0
  9 10  1  0  0  0
 10 11  1  0  0  0
 11 12  1  0  0  0
 12  1  1  0  0  0
  1  2  1  0  0  0
  2  3  2  0  0  0
  3  4  1  0  0  0
  4  5  2  0  0  0
  5 18  1  0  0  0
 18 19  1  0  0  0
 19 20  2  0  0  0
 20 21  1  0  0  0
 21 22  2  0  0  0
 22 23  1  0  0  0
 23 24  2  0  0  0
 24 25  1  0  0  0
 25 26  2  0  0  0
  5  6  1  0  0  0
 12 13  1  0  0  0
 13 14  1  0  0  0
 14 15  1  0  0  0
 15 16  1  0  0  0
 16  8  1  0  0  0
 15 10  1  0  0  0
  6  1  2  0  0  0
 26 18  1  0  0  0
 26 21  1  0  0  0
  7 17  1  0  0  0
M  END
> <minimizedAffinity>
-8.03524

$$$$
OCNT-2312592


 29 31  0  0  0  0  0  0  0  0999 V2000
    0.4980   14.3941   21.0568 C   0  0  0  0  0  0  0  0  0  0  0  0
   -0.1324   14.7796   22.0400 O   0  0  0  0  0  0  0  0  0  0  0  0
    1.8407   14.0687   21.1097 N   0  0  0  0  0  0  0  0  0  0  0  0
    2.3294   14.0341   20.2134 H   0  0  0  0  0  0  0  0  0  0  0  0
   -0.1529   14.1901   19.7084 C   0  0  0  0  0  0  0  0  0  0  0  0
   -1.2833   14.5791   16.8509 C   0  0  0  0  0  0  0  0  0  0  0  0
   -0.6123   15.6223   17.6650 C   0  0  0  0  0  0  0  0  0  0  0  0
   -0.3385   16.9417   17.3775 C   0  0  0  0  0  0  0  0  0  0  0  0
    0.2986   17.4701   18.5312 C   0  0  0  0  0  0  0  0  0  0  0  0
    0.4087   16.5233   19.4867 N   0  0  0  0  0  0  0  0  0  0  0  0
   -0.1305   15.4146   18.9306 N   0  0  0  0  0  0  0  0  0  0  0  0
    0.7831   18.8850   18.7188 C   0  0  0  0  0  0  0  0  0  0  0  0
    0.3975   19.4037   19.9161 F   0  0  0  0  0  0  0  0  0  0  0  0
    0.2912   19.7208   17.7624 F   0  0  0  0  0  0  0  0  0  0  0  0
    2.1376   18.9876   18.6588 F   0  0  0  0  0  0  0  0  0  0  0  0
    2.6285   14.3559   22.2941 C   0  0  0  0  0  0  0  0  0  0  0  0
    4.0419   14.8359   21.9603 C   0  0  0  0  0  0  0  0  0  0  0  0
    4.0520   16.2925   21.6828 C   0  0  0  0  0  0  0  0  0  0  0  0
    5.0718   17.1199   21.7172 N   0  0  0  0  0  0  0  0  0  0  0  0
    4.5261   18.3364   21.3576 C   0  0  0  0  0  0  0  0  0  0  0  0
    3.2096   18.2763   21.0949 N   0  0  0  0  0  0  0  0  0  0  0  0
    2.9355   16.9833   21.3142 N   0  0  0  0  0  0  0  0  0  0  0  0
    1.9880   16.6430   21.1863 H   0  0  0  0  0  0  0  0  0  0  0  0
    5.3246   19.5561   21.2755 C   0  0  0  0  0  0  0  0  0  0  0  0
    6.5397   19.6720   21.9673 C   0  0  0  0  0  0  0  0  0  0  0  0
    7.2996   20.8416   21.8809 C   0  0  0  0  0  0  0  0  0  0  0  0
    6.8534   21.9076   21.1014 C   0  0  0  0  0  0  0  0  0  0  0  0
    5.6470   21.8073   20.4108 C   0  0  0  0  0  0  0  0  0  0  0  0
    4.8864   20.6384   20.4982 C   0  0  0  0  0  0  0  0  0  0  0  0
  6  7  1  0  0  0
  7  8  2  0  0  0
  8  9  1  0  0  0
  9 12  1  0  0  0
 12 13  1  0  0  0
 12 14  1  0  0  0
 12 15  1  0  0  0
  9 10  2  0  0  0
 10 11  1  0  0  0
 11  5  1  0  0  0
  5  1  1  0  0  0
  1  2  2  0  0  0
  1  3  1  0  0  0
  3 16  1  0  0  0
 16 17  1  0  0  0
 17 18  1  0  0  0
 18 19  2  0  0  0
 19 20  1  0  0  0
 20 24  1  0  0  0
 24 25  2  0  0  0
 25 26  1  0  0  0
 26 27  2  0  0  0
 27 28  1  0  0  0
 28 29  2  0  0  0
 20 21  2  0  0  0
 21 22  1  0  0  0
 11  7  1  0  0  0
 22 18  1  0  0  0
 29 24  1  0  0  0
  3  4  1  0  0  0
 22 23  1  0  0  0
M  END
> <minimizedAffinity>
-9.76669

$$$$
OCNT-2312594


 27 30  0  0  0  0  0  0  0  0999 V2000
   -0.3164   13.9069   19.0721 O   0  0  0  0  0  0  0  0  0  0  0  0
    0.0677   14.8385   19.7670 C   0  0  0  0  0  0  0  0  0  0  0  0
   -0.0516   16.1634   19.4276 N   0  0  0  0  0  0  0  0  0  0  0  0
    0.3107   16.8650   20.0602 H   0  0  0  0  0  0  0  0  0  0  0  0
    0.7420   14.5935   21.0918 C   0  0  0  0  0  0  0  0  0  0  0  0
   -0.1677   14.4525   22.3121 C   0  0  0  0  0  0  0  0  0  0  0  0
    0.5211   13.2420   21.7706 C   0  0  0  0  0  0  0  0  0  0  0  0
    2.0736   15.3106   21.2978 C   0  0  0  0  0  0  0  0  0  0  0  0
    3.2006   14.6136   21.7717 C   0  0  0  0  0  0  0  0  0  0  0  0
    4.4250   15.2563   21.9775 C   0  0  0  0  0  0  0  0  0  0  0  0
    4.5412   16.6170   21.7145 C   0  0  0  0  0  0  0  0  0  0  0  0
    6.0445   17.4138   21.9654 Cl  0  0  0  0  0  0  0  0  0  0  0  0
    3.4442   17.3369   21.2518 C   0  0  0  0  0  0  0  0  0  0  0  0
    2.2222   16.6874   21.0490 C   0  0  0  0  0  0  0  0  0  0  0  0
   -0.6751   16.5946   18.1898 C   0  0  0  0  0  0  0  0  0  0  0  0
    0.2016   17.5217   17.3435 C   0  0  0  0  0  0  0  0  0  0  0  0
    0.7741   18.6463   18.1293 C   0  0  0  0  0  0  0  0  0  0  0  0
    2.0895   18.7568   18.3509 N   0  0  0  0  0  0  0  0  0  0  0  0
    2.1698   19.9029   19.0868 N   0  0  0  0  0  0  0  0  0  0  0  0
    0.9864   20.5365   19.3201 N   0  0  0  0  0  0  0  0  0  0  0  0
    0.1090   19.7278   18.7255 C   0  0  0  0  0  0  0  0  0  0  0  0
    3.4069   20.4119   19.5599 C   0  0  0  0  0  0  0  0  0  0  0  0
    4.5625   19.6194   19.5007 C   0  0  0  0  0  0  0  0  0  0  0  0
    5.7781   20.1247   19.9665 C   0  0  0  0  0  0  0  0  0  0  0  0
    5.8447   21.4157   20.4904 C   0  0  0  0  0  0  0  0  0  0  0  0
    4.6973   22.2066   20.5517 C   0  0  0  0  0  0  0  0  0  0  0  0
    3.4777   21.7090   20.0882 C   0  0  0  0  0  0  0  0  0  0  0  0
  1  2  2  0  0  0
  2  3  1  0  0  0
  3 15  1  0  0  0
 15 16  1  0  0  0
 16 17  1  0  0  0
 17 18  2  0  0  0
 18 19  1  0  0  0
 19 22  1  0  0  0
 22 23  2  0  0  0
 23 24  1  0  0  0
 24 25  2  0  0  0
 25 26  1  0  0  0
 26 27  2  0  0  0
 19 20  1  0  0  0
 20 21  2  0  0  0
  2  5  1  0  0  0
  5  8  1  0  0  0
  8  9  1  0  0  0
  9 10  2  0  0  0
 10 11  1  0  0  0
 11 12  1  0  0  0
 11 13  2  0  0  0
 13 14  1  0  0  0
  5  6  1  0  0  0
  6  7  1  0  0  0
 21 17  1  0  0  0
  7  5  1  0  0  0
 27 22  1  0  0  0
 14  8  2  0  0  0
  3  4  1  0  0  0
M  END
> <minimizedAffinity>
-8.71731

$$$$
OCNT-2312595


 28 31  0  0  0  0  0  0  0  0999 V2000
    5.4475   18.1180   21.5368 N   0  0  0  0  0  0  0  0  0  0  0  0
    4.1240   17.7725   21.6808 C   0  0  0  0  0  0  0  0  0  0  0  0
    3.2148   18.5641   21.9175 O   0  0  0  0  0  0  0  0  0  0  0  0
    3.8734   16.4028   21.5805 N   0  0  0  0  0  0  0  0  0  0  0  0
    4.7263   15.4340   20.8966 C   0  0  0  0  0  0  0  0  0  0  0  0
    4.8560   14.1563   21.7248 C   0  0  0  0  0  0  0  0  0  0  0  0
    3.5695   13.7824   22.4731 C   0  0  0  0  0  0  0  0  0  0  0  0
    2.3315   14.4388   21.8489 C   0  0  0  0  0  0  0  0  0  0  0  0
    2.4901   15.9697   21.8080 C   0  0  0  0  0  0  0  0  0  0  0  0
    6.1070   17.3913   21.7606 H   0  0  0  0  0  0  0  0  0  0  0  0
    1.0708   14.0176   22.5400 C   0  0  0  0  0  0  0  0  0  0  0  0
    0.3571   12.9471   22.2551 N   0  0  0  0  0  0  0  0  0  0  0  0
   -0.6949   12.9527   23.1382 C   0  0  0  0  0  0  0  0  0  0  0  0
   -1.7571   12.0469   23.2763 C   0  0  0  0  0  0  0  0  0  0  0  0
   -2.7292   12.2777   24.2661 C   0  0  0  0  0  0  0  0  0  0  0  0
   -3.8558   11.3028   24.4500 C   0  0  0  0  0  0  0  0  0  0  0  0
   -2.6116   13.3891   25.1144 C   0  0  0  0  0  0  0  0  0  0  0  0
   -1.5570   14.3034   24.9912 C   0  0  0  0  0  0  0  0  0  0  0  0
   -0.6212   14.0477   23.9885 C   0  0  0  0  0  0  0  0  0  0  0  0
    0.5111   14.7091   23.5900 N   0  0  0  0  0  0  0  0  0  0  0  0
    0.8686   15.5607   23.9980 H   0  0  0  0  0  0  0  0  0  0  0  0
    5.0608   22.5934   19.5259 C   0  0  0  0  0  0  0  0  0  0  0  0
    5.7663   21.6452   20.4496 C   0  0  0  0  0  0  0  0  0  0  0  0
    6.9178   22.0478   21.1320 C   0  0  0  0  0  0  0  0  0  0  0  0
    7.5851   21.1547   21.9687 C   0  0  0  0  0  0  0  0  0  0  0  0
    7.1175   19.8469   22.1207 C   0  0  0  0  0  0  0  0  0  0  0  0
    5.9853   19.4176   21.4279 C   0  0  0  0  0  0  0  0  0  0  0  0
    5.3131   20.3255   20.5969 C   0  0  0  0  0  0  0  0  0  0  0  0
 22 23  1  0  0  0
 23 24  2  0  0  0
 24 25  1  0  0  0
 25 26  2  0  0  0
 26 27  1  0  0  0
 27  1  1  0  0  0
  1  2  1  0  0  0
  2  3  2  0  0  0
  2  4  1  0  0  0
  4  5  1  0  0  0
  5  6  1  0  0  0
  6  7  1  0  0  0
  7  8  1  0  0  0
  8 11  1  0  0  0
 11 12  2  0  0  0
 12 13  1  0  0  0
 13 14  2  0  0  0
 14 15  1  0  0  0
 15 16  1  0  0  0
 15 17  2  0  0  0
 17 18  1  0  0  0
 18 19  2  0  0  0
 19 20  1  0  0  0
  8  9  1  0  0  0
 27 28  2  0  0  0
 28 23  1  0  0  0
  9  4  1  0  0  0
 20 11  1  0  0  0
 19 13  1  0  0  0
  1 10  1  0  0  0
 20 21  1  0  0  0
M  END
> <minimizedAffinity>
0.87689

$$$$
OCNT-2312600


 25 27  0  0  0  0  0  0  0  0999 V2000
    2.5335   15.5188   22.2775 C   0  0  0  0  0  0  0  0  0  0  0  0
    1.6229   15.4591   21.0935 C   0  0  0  0  0  0  0  0  0  0  0  0
    1.2789   16.5093   20.3807 N   0  0  0  0  0  0  0  0  0  0  0  0
    0.4423   16.1275   19.3422 C   0  0  0  0  0  0  0  0  0  0  0  0
    0.1177   14.7801   19.3139 C   0  0  0  0  0  0  0  0  0  0  0  0
   -0.7833   14.0134   18.4100 C   0  0  0  0  0  0  0  0  0  0  0  0
    0.9446   13.9694   20.5842 S   0  0  0  0  0  0  0  0  0  0  0  0
   -0.0607   17.1257   18.4089 C   0  0  0  0  0  0  0  0  0  0  0  0
    0.8053   17.9661   17.6970 C   0  0  0  0  0  0  0  0  0  0  0  0
    0.2954   18.9182   16.8108 C   0  0  0  0  0  0  0  0  0  0  0  0
   -1.0821   19.0436   16.6368 C   0  0  0  0  0  0  0  0  0  0  0  0
   -1.9523   18.2239   17.3534 C   0  0  0  0  0  0  0  0  0  0  0  0
   -1.4437   17.2722   18.2397 C   0  0  0  0  0  0  0  0  0  0  0  0
    3.9948   15.4407   21.8383 C   0  0  0  0  0  0  0  0  0  0  0  0
    4.5482   17.8445   22.1156 C   0  0  0  0  0  0  0  0  0  0  0  0
    4.1633   17.8234   23.2828 O   0  0  0  0  0  0  0  0  0  0  0  0
    4.4899   16.7084   21.3327 N   0  0  0  0  0  0  0  0  0  0  0  0
    4.8469   16.7560   20.3866 H   0  0  0  0  0  0  0  0  0  0  0  0
    7.4335   22.0026   20.5856 C   0  0  0  0  0  0  0  0  0  0  0  0
    6.3971   20.9485   20.7538 C   0  0  0  0  0  0  0  0  0  0  0  0
    5.2933   20.8740   20.0461 N   0  0  0  0  0  0  0  0  0  0  0  0
    4.5377   19.7812   20.4488 C   0  0  0  0  0  0  0  0  0  0  0  0
    3.2442   19.5324   19.7553 C   0  0  0  0  0  0  0  0  0  0  0  0
    5.0921   19.0308   21.4765 C   0  0  0  0  0  0  0  0  0  0  0  0
    6.5966   19.7238   21.9363 S   0  0  0  0  0  0  0  0  0  0  0  0
 19 20  1  0  0  0
 20 21  2  0  0  0
 21 22  1  0  0  0
 22 23  1  0  0  0
 22 24  2  0  0  0
 24 15  1  0  0  0
 15 16  2  0  0  0
 15 17  1  0  0  0
 17 14  1  0  0  0
 14  1  1  0  0  0
  1  2  1  0  0  0
  2  3  2  0  0  0
  3  4  1  0  0  0
  4  8  1  0  0  0
  8  9  2  0  0  0
  9 10  1  0  0  0
 10 11  2  0  0  0
 11 12  1  0  0  0
 12 13  2  0  0  0
  4  5  2  0  0  0
  5  6  1  0  0  0
  5  7  1  0  0  0
 24 25  1  0  0  0
 25 20  1  0  0  0
  7  2  1  0  0  0
 13  8  1  0  0  0
 17 18  1  0  0  0
M  END
> <minimizedAffinity>
-8.53338

$$$$
OCNT-2312604


 26 28  0  0  0  0  0  0  0  0999 V2000
    2.5820   15.6866   21.5832 C   0  0  0  0  0  0  0  0  0  0  0  0
    3.1704   14.7594   22.1283 O   0  0  0  0  0  0  0  0  0  0  0  0
    2.8655   17.0068   21.8508 N   0  0  0  0  0  0  0  0  0  0  0  0
    2.3402   17.7290   21.3771 H   0  0  0  0  0  0  0  0  0  0  0  0
    0.6899   19.5758   17.7380 C   0  0  0  0  0  0  0  0  0  0  0  0
    0.4439   18.1989   18.2808 C   0  0  0  0  0  0  0  0  0  0  0  0
    1.2205   17.6423   19.2358 C   0  0  0  0  0  0  0  0  0  0  0  0
    0.9467   16.3203   19.7075 C   0  0  0  0  0  0  0  0  0  0  0  0
    1.4939   15.4697   20.6534 C   0  0  0  0  0  0  0  0  0  0  0  0
    0.7720   14.2703   20.4868 C   0  0  0  0  0  0  0  0  0  0  0  0
   -0.2026   14.3605   19.5827 N   0  0  0  0  0  0  0  0  0  0  0  0
   -0.1018   15.6219   19.0958 N   0  0  0  0  0  0  0  0  0  0  0  0
   -0.9065   16.2026   18.1163 C   0  0  0  0  0  0  0  0  0  0  0  0
   -0.6756   17.4597   17.7067 C   0  0  0  0  0  0  0  0  0  0  0  0
    4.0640   17.3866   22.5927 C   0  0  0  0  0  0  0  0  0  0  0  0
    5.2679   17.7223   21.6810 C   0  0  0  0  0  0  0  0  0  0  0  0
    6.4220   17.5447   22.3928 F   0  0  0  0  0  0  0  0  0  0  0  0
    5.3222   16.7691   20.6979 F   0  0  0  0  0  0  0  0  0  0  0  0
    5.1686   19.1152   21.1089 C   0  0  0  0  0  0  0  0  0  0  0  0
    4.1946   19.4411   20.1508 C   0  0  0  0  0  0  0  0  0  0  0  0
    4.1214   20.7368   19.6345 C   0  0  0  0  0  0  0  0  0  0  0  0
    5.0202   21.7044   20.0725 C   0  0  0  0  0  0  0  0  0  0  0  0
    4.9495   22.9440   19.5715 F   0  0  0  0  0  0  0  0  0  0  0  0
    5.9921   21.4030   21.0155 C   0  0  0  0  0  0  0  0  0  0  0  0
    6.0565   20.1115   21.5256 C   0  0  0  0  0  0  0  0  0  0  0  0
    7.0074   19.8203   22.4239 F   0  0  0  0  0  0  0  0  0  0  0  0
  5  6  1  0  0  0
  6  7  2  0  0  0
  7  8  1  0  0  0
  8  9  2  0  0  0
  9  1  1  0  0  0
  1  2  2  0  0  0
  1  3  1  0  0  0
  3 15  1  0  0  0
 15 16  1  0  0  0
 16 17  1  0  0  0
 16 18  1  0  0  0
 16 19  1  0  0  0
 19 20  1  0  0  0
 20 21  2  0  0  0
 21 22  1  0  0  0
 22 23  1  0  0  0
 22 24  2  0  0  0
 24 25  1  0  0  0
 25 26  1  0  0  0
  9 10  1  0  0  0
 10 11  2  0  0  0
 11 12  1  0  0  0
 12 13  1  0  0  0
 13 14  2  0  0  0
 14  6  1  0  0  0
 12  8  1  0  0  0
 25 19  2  0  0  0
  3  4  1  0  0  0
M  END
> <minimizedAffinity>
-11.69334

$$$$
OCNT-2312606


 30 34  0  0  0  0  0  0  0  0999 V2000
    0.8331   13.8511   21.2807 O   0  0  0  0  0  0  0  0  0  0  0  0
    0.9869   14.8193   20.5383 C   0  0  0  0  0  0  0  0  0  0  0  0
    1.9332   15.8228   20.8157 N   0  0  0  0  0  0  0  0  0  0  0  0
    1.6018   17.2325   20.5953 C   0  0  0  0  0  0  0  0  0  0  0  0
    2.8573   18.0827   20.4474 C   0  0  0  0  0  0  0  0  0  0  0  0
    3.7911   17.8711   21.6443 C   0  0  0  0  0  0  0  0  0  0  0  0
    4.1002   16.3859   21.8602 C   0  0  0  0  0  0  0  0  0  0  0  0
    2.8134   15.5737   21.9545 C   0  0  0  0  0  0  0  0  0  0  0  0
    0.2149   14.9380   19.3003 C   0  0  0  0  0  0  0  0  0  0  0  0
   -0.1926   13.8991   18.4779 C   0  0  0  0  0  0  0  0  0  0  0  0
   -0.9214   14.4213   17.4442 N   0  0  0  0  0  0  0  0  0  0  0  0
   -1.0290   15.7850   17.5811 C   0  0  0  0  0  0  0  0  0  0  0  0
   -1.6872   16.7232   16.7747 C   0  0  0  0  0  0  0  0  0  0  0  0
   -1.6409   18.0613   17.1758 C   0  0  0  0  0  0  0  0  0  0  0  0
   -2.4359   19.2523   16.2167 Cl  0  0  0  0  0  0  0  0  0  0  0  0
   -0.9701   18.4499   18.3314 C   0  0  0  0  0  0  0  0  0  0  0  0
   -0.3174   17.4974   19.1234 C   0  0  0  0  0  0  0  0  0  0  0  0
   -0.3419   16.1375   18.7445 C   0  0  0  0  0  0  0  0  0  0  0  0
   -1.3427   13.8854   16.6973 H   0  0  0  0  0  0  0  0  0  0  0  0
    4.9801   18.6987   21.5847 N   0  0  0  0  0  0  0  0  0  0  0  0
    6.2269   18.3159   22.1342 C   0  0  0  0  0  0  0  0  0  0  0  0
    6.5013   17.2805   22.7175 O   0  0  0  0  0  0  0  0  0  0  0  0
    7.1165   19.3682   21.8857 N   0  0  0  0  0  0  0  0  0  0  0  0
    6.4471   20.3773   21.2073 C   0  0  0  0  0  0  0  0  0  0  0  0
    6.9366   21.5876   20.7701 C   0  0  0  0  0  0  0  0  0  0  0  0
    6.0385   22.4280   20.1087 C   0  0  0  0  0  0  0  0  0  0  0  0
    4.6984   22.0387   19.9084 C   0  0  0  0  0  0  0  0  0  0  0  0
    4.2272   20.8004   20.3647 C   0  0  0  0  0  0  0  0  0  0  0  0
    5.1224   19.9778   21.0150 C   0  0  0  0  0  0  0  0  0  0  0  0
    8.0817   19.3603   22.1710 H   0  0  0  0  0  0  0  0  0  0  0  0
  1  2  2  0  0  0
  2  9  1  0  0  0
  9 10  2  0  0  0
 10 11  1  0  0  0
 11 12  1  0  0  0
 12 13  2  0  0  0
 13 14  1  0  0  0
 14 15  1  0  0  0
 14 16  2  0  0  0
 16 17  1  0  0  0
 17 18  2  0  0  0
  2  3  1  0  0  0
  3  4  1  0  0  0
  4  5  1  0  0  0
  5  6  1  0  0  0
  6 20  1  0  0  0
 20 21  1  0  0  0
 21 22  2  0  0  0
 21 23  1  0  0  0
 23 24  1  0  0  0
 24 25  2  0  0  0
 25 26  1  0  0  0
 26 27  2  0  0  0
 27 28  1  0  0  0
 28 29  2  0  0  0
  6  7  1  0  0  0
  7  8  1  0  0  0
 18  9  1  0  0  0
  8  3  1  0  0  0
 18 12  1  0  0  0
 29 20  1  0  0  0
 29 24  1  0  0  0
 11 19  1  0  0  0
 23 30  1  0  0  0
M  END
> <minimizedAffinity>
-8.76788

$$$$
OCNT-2312607


 25 28  0  0  0  0  0  0  0  0999 V2000
    1.8989   17.3295   19.9787 C   0  0  0  0  0  0  0  0  0  0  0  0
    0.9363   17.5882   19.2537 O   0  0  0  0  0  0  0  0  0  0  0  0
    1.9898   16.0979   20.6031 N   0  0  0  0  0  0  0  0  0  0  0  0
    2.8412   15.7369   21.7284 C   0  0  0  0  0  0  0  0  0  0  0  0
    2.0939   14.5993   22.4143 C   0  0  0  0  0  0  0  0  0  0  0  0
    1.3926   13.9038   21.2414 C   0  0  0  0  0  0  0  0  0  0  0  0
    0.9640   15.0935   20.3842 C   0  0  0  0  0  0  0  0  0  0  0  0
    3.1201   19.6183   19.7632 C   0  0  0  0  0  0  0  0  0  0  0  0
    2.9028   18.3375   20.2331 C   0  0  0  0  0  0  0  0  0  0  0  0
    3.8670   18.1342   21.2016 N   0  0  0  0  0  0  0  0  0  0  0  0
    4.7451   19.1898   21.2683 C   0  0  0  0  0  0  0  0  0  0  0  0
    5.8827   19.3728   22.0627 C   0  0  0  0  0  0  0  0  0  0  0  0
    6.5858   20.5728   21.9164 C   0  0  0  0  0  0  0  0  0  0  0  0
    6.1643   21.5481   21.0148 C   0  0  0  0  0  0  0  0  0  0  0  0
    5.0211   21.3494   20.2324 C   0  0  0  0  0  0  0  0  0  0  0  0
    4.2980   20.1468   20.3603 C   0  0  0  0  0  0  0  0  0  0  0  0
    3.9194   17.2966   21.7658 H   0  0  0  0  0  0  0  0  0  0  0  0
    1.2185   20.8614   19.5047 C   0  0  0  0  0  0  0  0  0  0  0  0
    2.3332   20.2461   18.8632 O   0  0  0  0  0  0  0  0  0  0  0  0
    0.2112   13.0239   21.6432 C   0  0  0  0  0  0  0  0  0  0  0  0
   -0.4230   13.4859   22.9196 C   0  0  0  0  0  0  0  0  0  0  0  0
   -0.3717   14.7256   23.3604 N   0  0  0  0  0  0  0  0  0  0  0  0
   -1.0483   14.8212   24.5599 C   0  0  0  0  0  0  0  0  0  0  0  0
   -1.6089   13.6510   25.0218 C   0  0  0  0  0  0  0  0  0  0  0  0
   -1.2826   12.3803   23.9201 S   0  0  0  0  0  0  0  0  0  0  0  0
 18 19  1  0  0  0
 19  8  1  0  0  0
  8  9  2  0  0  0
  9  1  1  0  0  0
  1  2  2  0  0  0
  1  3  1  0  0  0
  3  4  1  0  0  0
  4  5  1  0  0  0
  5  6  1  0  0  0
  6 20  1  0  0  0
 20 21  1  0  0  0
 21 22  2  0  0  0
 22 23  1  0  0  0
 23 24  2  0  0  0
 24 25  1  0  0  0
  6  7  1  0  0  0
  9 10  1  0  0  0
 10 11  1  0  0  0
 11 12  2  0  0  0
 12 13  1  0  0  0
 13 14  2  0  0  0
 14 15  1  0  0  0
 15 16  2  0  0  0
 16  8  1  0  0  0
  7  3  1  0  0  0
 16 11  1  0  0  0
 25 21  1  0  0  0
 10 17  1  0  0  0
M  END
> <minimizedAffinity>
-7.02930

$$$$
OCNT-2312610


 29 32  0  0  0  0  0  0  0  0999 V2000
   -0.7100   17.6989   19.1478 O   0  0  0  0  0  0  0  0  0  0  0  0
   -0.6038   17.5533   17.9382 C   0  0  0  0  0  0  0  0  0  0  0  0
   -0.2522   18.5497   17.0650 N   0  0  0  0  0  0  0  0  0  0  0  0
   -0.8217   16.3736   17.2755 N   0  0  0  0  0  0  0  0  0  0  0  0
   -0.6059   18.4410   16.1273 H   0  0  0  0  0  0  0  0  0  0  0  0
   -0.3042   16.2648   16.4171 H   0  0  0  0  0  0  0  0  0  0  0  0
   -0.0716   19.9091   17.5237 C   0  0  0  0  0  0  0  0  0  0  0  0
    1.1851   20.0440   18.3457 C   0  0  0  0  0  0  0  0  0  0  0  0
    2.1457   19.0257   18.3419 C   0  0  0  0  0  0  0  0  0  0  0  0
    3.3042   19.1369   19.1169 C   0  0  0  0  0  0  0  0  0  0  0  0
    3.5328   20.2644   19.9208 C   0  0  0  0  0  0  0  0  0  0  0  0
    2.5597   21.2767   19.9250 C   0  0  0  0  0  0  0  0  0  0  0  0
    1.3994   21.1687   19.1508 C   0  0  0  0  0  0  0  0  0  0  0  0
    4.7537   20.3814   20.7338 C   0  0  0  0  0  0  0  0  0  0  0  0
    5.2793   19.2767   21.4143 C   0  0  0  0  0  0  0  0  0  0  0  0
    6.4333   19.4347   22.1663 C   0  0  0  0  0  0  0  0  0  0  0  0
    7.0945   20.6037   22.2910 N   0  0  0  0  0  0  0  0  0  0  0  0
    6.5766   21.6611   21.6330 C   0  0  0  0  0  0  0  0  0  0  0  0
    5.4307   21.6006   20.8548 C   0  0  0  0  0  0  0  0  0  0  0  0
   -1.1006   15.1548   18.0028 C   0  0  0  0  0  0  0  0  0  0  0  0
   -0.1326   14.9696   19.1427 C   0  0  0  0  0  0  0  0  0  0  0  0
   -0.0938   13.7745   19.8665 C   0  0  0  0  0  0  0  0  0  0  0  0
    0.8246   13.6051   20.9101 C   0  0  0  0  0  0  0  0  0  0  0  0
    1.7396   14.6113   21.2669 C   0  0  0  0  0  0  0  0  0  0  0  0
    1.6873   15.8007   20.5190 C   0  0  0  0  0  0  0  0  0  0  0  0
    0.7731   15.9806   19.4752 C   0  0  0  0  0  0  0  0  0  0  0  0
    2.7514   14.4706   22.3901 C   0  0  0  0  0  0  0  0  0  0  0  0
    4.0312   13.6931   22.1987 C   0  0  0  0  0  0  0  0  0  0  0  0
    4.0792   15.1874   22.3439 C   0  0  0  0  0  0  0  0  0  0  0  0
  1  2  2  0  0  0
  2  3  1  0  0  0
  3  7  1  0  0  0
  7  8  1  0  0  0
  8  9  1  0  0  0
  9 10  2  0  0  0
 10 11  1  0  0  0
 11 14  1  0  0  0
 14 15  2  0  0  0
 15 16  1  0  0  0
 16 17  2  0  0  0
 17 18  1  0  0  0
 18 19  2  0  0  0
 11 12  2  0  0  0
 12 13  1  0  0  0
  2  4  1  0  0  0
  4 20  1  0  0  0
 20 21  1  0  0  0
 21 22  1  0  0  0
 22 23  2  0  0  0
 23 24  1  0  0  0
 24 27  1  0  0  0
 27 28  1  0  0  0
 28 29  1  0  0  0
 24 25  2  0  0  0
 25 26  1  0  0  0
 13  8  2  0  0  0
 26 21  2  0  0  0
 19 14  1  0  0  0
 29 27  1  0  0  0
  3  5  1  0  0  0
  4  6  1  0  0  0
M  END
> <minimizedAffinity>
-6.78508

$$$$
OCNT-2312612


 32 35  0  0  0  0  0  0  0  0999 V2000
    2.1544   17.4025   19.9903 N   0  0  0  0  0  0  0  0  0  0  0  0
    1.4824   16.2178   20.2393 C   0  0  0  0  0  0  0  0  0  0  0  0
    1.7238   15.4809   21.1946 O   0  0  0  0  0  0  0  0  0  0  0  0
    1.9070   17.9715   19.1881 H   0  0  0  0  0  0  0  0  0  0  0  0
    4.8727   18.8787   21.8111 C   0  0  0  0  0  0  0  0  0  0  0  0
    4.3931   18.0118   22.7180 N   0  0  0  0  0  0  0  0  0  0  0  0
    3.3515   17.4345   22.1023 N   0  0  0  0  0  0  0  0  0  0  0  0
    3.1570   17.8676   20.8201 C   0  0  0  0  0  0  0  0  0  0  0  0
    4.1384   18.8086   20.5820 C   0  0  0  0  0  0  0  0  0  0  0  0
    4.3901   19.5502   19.3212 C   0  0  0  0  0  0  0  0  0  0  0  0
    2.8000   16.7334   22.5914 H   0  0  0  0  0  0  0  0  0  0  0  0
    5.9609   21.1209   22.0896 C   0  0  0  0  0  0  0  0  0  0  0  0
    7.0986   21.8913   22.3473 C   0  0  0  0  0  0  0  0  0  0  0  0
    8.2954   21.2696   22.7017 C   0  0  0  0  0  0  0  0  0  0  0  0
    8.3573   19.8799   22.7935 C   0  0  0  0  0  0  0  0  0  0  0  0
    7.2268   19.1089   22.5105 C   0  0  0  0  0  0  0  0  0  0  0  0
    6.0214   19.7199   22.1342 C   0  0  0  0  0  0  0  0  0  0  0  0
    4.9021   22.2556   20.4032 C   0  0  0  0  0  0  0  0  0  0  0  0
    4.8105   21.7900   21.7509 O   0  0  0  0  0  0  0  0  0  0  0  0
    0.4064   15.8345   19.2799 C   0  0  0  0  0  0  0  0  0  0  0  0
   -0.1976   16.8483   18.5152 C   0  0  0  0  0  0  0  0  0  0  0  0
   -1.2174   16.5530   17.5969 C   0  0  0  0  0  0  0  0  0  0  0  0
   -1.6293   15.2217   17.4478 C   0  0  0  0  0  0  0  0  0  0  0  0
   -1.0335   14.2079   18.2001 C   0  0  0  0  0  0  0  0  0  0  0  0
   -0.0238   14.5181   19.1067 C   0  0  0  0  0  0  0  0  0  0  0  0
    0.5219   13.5126   19.8072 F   0  0  0  0  0  0  0  0  0  0  0  0
   -1.8209   17.6172   16.8139 C   0  0  0  0  0  0  0  0  0  0  0  0
   -3.1491   17.9903   16.8658 C   0  0  0  0  0  0  0  0  0  0  0  0
   -3.2887   19.0367   15.9993 N   0  0  0  0  0  0  0  0  0  0  0  0
   -4.4941   19.7786   15.7188 C   0  0  0  0  0  0  0  0  0  0  0  0
   -2.1464   19.3689   15.3730 N   0  0  0  0  0  0  0  0  0  0  0  0
   -1.2527   18.5138   15.8774 C   0  0  0  0  0  0  0  0  0  0  0  0
 18 19  1  0  0  0
 19 12  1  0  0  0
 12 13  2  0  0  0
 13 14  1  0  0  0
 14 15  2  0  0  0
 15 16  1  0  0  0
 16 17  2  0  0  0
 17  5  1  0  0  0
  5  6  2  0  0  0
  6  7  1  0  0  0
  7  8  1  0  0  0
  8  1  1  0  0  0
  1  2  1  0  0  0
  2  3  2  0  0  0
  2 20  1  0  0  0
 20 21  1  0  0  0
 21 22  2  0  0  0
 22 27  1  0  0  0
 27 28  2  0  0  0
 28 29  1  0  0  0
 29 30  1  0  0  0
 29 31  1  0  0  0
 31 32  2  0  0  0
 22 23  1  0  0  0
 23 24  2  0  0  0
 24 25  1  0  0  0
 25 26  1  0  0  0
  8  9  2  0  0  0
  9 10  1  0  0  0
 17 12  1  0  0  0
  9  5  1  0  0  0
 25 20  2  0  0  0
 32 27  1  0  0  0
  7 11  1  0  0  0
  1  4  1  0  0  0
M  END
> <minimizedAffinity>
1.19864

$$$$
OCNT-2312641


 27 30  0  0  0  0  0  0  0  0999 V2000
   -0.2941   13.7106   19.8964 O   0  0  0  0  0  0  0  0  0  0  0  0
    0.3579   14.5196   20.5584 C   0  0  0  0  0  0  0  0  0  0  0  0
    0.6105   14.1913   21.8647 N   0  0  0  0  0  0  0  0  0  0  0  0
    1.4355   14.9344   22.7846 C   0  0  0  0  0  0  0  0  0  0  0  0
    2.8976   14.9380   22.3572 C   0  0  0  0  0  0  0  0  0  0  0  0
    3.1018   15.4165   20.9180 C   0  0  0  0  0  0  0  0  0  0  0  0
    2.1139   16.4183   20.5212 N   0  0  0  0  0  0  0  0  0  0  0  0
    2.3236   17.7950   20.5039 C   0  0  0  0  0  0  0  0  0  0  0  0
    1.4801   18.5710   20.0467 O   0  0  0  0  0  0  0  0  0  0  0  0
    0.7965   15.9202   20.0241 C   0  0  0  0  0  0  0  0  0  0  0  0
    0.2729   13.2734   22.1298 H   0  0  0  0  0  0  0  0  0  0  0  0
    3.6234   18.3596   21.0389 C   0  0  0  0  0  0  0  0  0  0  0  0
    4.0941   19.4323   20.3660 C   0  0  0  0  0  0  0  0  0  0  0  0
    5.2847   20.0484   20.8184 C   0  0  0  0  0  0  0  0  0  0  0  0
    6.0615   21.1114   20.4155 C   0  0  0  0  0  0  0  0  0  0  0  0
    7.1427   21.2072   21.3298 C   0  0  0  0  0  0  0  0  0  0  0  0
    6.9904   20.2006   22.2618 C   0  0  0  0  0  0  0  0  0  0  0  0
    5.8543   19.4979   21.9425 N   0  0  0  0  0  0  0  0  0  0  0  0
    5.3064   18.3953   22.5974 C   0  0  0  0  0  0  0  0  0  0  0  0
    4.2196   17.8181   22.1727 N   0  0  0  0  0  0  0  0  0  0  0  0
    0.7716   15.9309   18.4745 C   0  0  0  0  0  0  0  0  0  0  0  0
   -0.1285   16.9942   17.8827 C   0  0  0  0  0  0  0  0  0  0  0  0
   -1.5044   16.9989   18.1439 C   0  0  0  0  0  0  0  0  0  0  0  0
   -2.3270   17.9852   17.5967 C   0  0  0  0  0  0  0  0  0  0  0  0
   -1.7832   18.9761   16.7820 C   0  0  0  0  0  0  0  0  0  0  0  0
   -0.4158   18.9826   16.5154 C   0  0  0  0  0  0  0  0  0  0  0  0
    0.4076   17.9975   17.0629 C   0  0  0  0  0  0  0  0  0  0  0  0
  1  2  2  0  0  0
  2  3  1  0  0  0
  3  4  1  0  0  0
  4  5  1  0  0  0
  5  6  1  0  0  0
  6  7  1  0  0  0
  7  8  1  0  0  0
  8  9  2  0  0  0
  8 12  1  0  0  0
 12 13  2  0  0  0
 13 14  1  0  0  0
 14 15  2  0  0  0
 15 16  1  0  0  0
 16 17  2  0  0  0
 17 18  1  0  0  0
 18 19  1  0  0  0
 19 20  2  0  0  0
  7 10  1  0  0  0
 10 21  1  0  0  0
 21 22  1  0  0  0
 22 23  2  0  0  0
 23 24  1  0  0  0
 24 25  2  0  0  0
 25 26  1  0  0  0
 26 27  2  0  0  0
 10  2  1  0  0  0
 27 22  1  0  0  0
 20 12  1  0  0  0
 18 14  1  0  0  0
  3 11  1  0  0  0
M  END
> <minimizedAffinity>
-7.91217

$$$$
OCNT-2312650


 25 27  0  0  0  0  0  0  0  0999 V2000
    3.9225   15.0571   22.1164 O   0  0  0  0  0  0  0  0  0  0  0  0
    3.1576   15.9518   21.7761 C   0  0  0  0  0  0  0  0  0  0  0  0
    3.2979   17.2688   22.1654 N   0  0  0  0  0  0  0  0  0  0  0  0
    2.4832   17.8652   22.1065 H   0  0  0  0  0  0  0  0  0  0  0  0
    1.9751   15.6404   20.9275 C   0  0  0  0  0  0  0  0  0  0  0  0
    1.3138   14.4104   21.0085 C   0  0  0  0  0  0  0  0  0  0  0  0
    0.2080   14.1657   20.1963 C   0  0  0  0  0  0  0  0  0  0  0  0
   -0.2423   15.1492   19.3108 C   0  0  0  0  0  0  0  0  0  0  0  0
    0.3960   16.3966   19.2271 C   0  0  0  0  0  0  0  0  0  0  0  0
    1.5072   16.6302   20.0501 C   0  0  0  0  0  0  0  0  0  0  0  0
   -0.0773   17.4293   18.3151 C   0  0  0  0  0  0  0  0  0  0  0  0
    0.5070   18.4178   17.5500 C   0  0  0  0  0  0  0  0  0  0  0  0
   -0.4500   19.1181   16.8580 N   0  0  0  0  0  0  0  0  0  0  0  0
   -1.5701   18.5400   17.2245 C   0  0  0  0  0  0  0  0  0  0  0  0
   -1.4312   17.5101   18.1021 O   0  0  0  0  0  0  0  0  0  0  0  0
    4.3485   17.6549   23.0841 C   0  0  0  0  0  0  0  0  0  0  0  0
    5.5885   18.1744   22.3569 C   0  0  0  0  0  0  0  0  0  0  0  0
    5.4196   19.5672   21.7160 C   0  0  0  0  0  0  0  0  0  0  0  0
    4.5808   19.5213   20.4236 C   0  0  0  0  0  0  0  0  0  0  0  0
    4.7901   20.7265   19.5015 C   0  0  0  0  0  0  0  0  0  0  0  0
    5.3467   21.9260   20.2409 C   0  0  0  0  0  0  0  0  0  0  0  0
    5.4872   22.9720   19.3901 F   0  0  0  0  0  0  0  0  0  0  0  0
    4.4507   22.3207   21.1844 F   0  0  0  0  0  0  0  0  0  0  0  0
    6.6820   21.6337   20.9085 C   0  0  0  0  0  0  0  0  0  0  0  0
    6.7899   20.2039   21.4481 C   0  0  0  0  0  0  0  0  0  0  0  0
  1  2  2  0  0  0
  2  3  1  0  0  0
  3 16  1  0  0  0
 16 17  1  0  0  0
 17 18  1  0  0  0
 18 19  1  0  0  0
 19 20  1  0  0  0
 20 21  1  0  0  0
 21 22  1  0  0  0
 21 23  1  0  0  0
 21 24  1  0  0  0
 24 25  1  0  0  0
  2  5  1  0  0  0
  5  6  1  0  0  0
  6  7  2  0  0  0
  7  8  1  0  0  0
  8  9  2  0  0  0
  9 11  1  0  0  0
 11 12  2  0  0  0
 12 13  1  0  0  0
 13 14  2  0  0  0
 14 15  1  0  0  0
  9 10  1  0  0  0
 25 18  1  0  0  0
 10  5  2  0  0  0
 15 11  1  0  0  0
  3  4  1  0  0  0
M  END
> <minimizedAffinity>
-11.55901

$$$$
OCNT-2312659


 22 24  0  0  0  0  0  0  0  0999 V2000
    5.4058   20.1555   21.4750 C   0  0  0  0  0  0  0  0  0  0  0  0
    4.7655   20.3325   20.2525 C   0  0  0  0  0  0  0  0  0  0  0  0
    3.8232   19.3926   19.8288 C   0  0  0  0  0  0  0  0  0  0  0  0
    3.5211   18.2885   20.6295 C   0  0  0  0  0  0  0  0  0  0  0  0
    4.1539   18.1093   21.8114 N   0  0  0  0  0  0  0  0  0  0  0  0
    5.0681   19.0319   22.2097 C   0  0  0  0  0  0  0  0  0  0  0  0
    2.5781   17.3473   20.2020 N   0  0  0  0  0  0  0  0  0  0  0  0
    2.0286   16.5037   21.2702 C   0  0  0  0  0  0  0  0  0  0  0  0
    1.4580   15.2221   20.6611 C   0  0  0  0  0  0  0  0  0  0  0  0
    0.5753   15.4805   19.4669 C   0  0  0  0  0  0  0  0  0  0  0  0
   -0.2871   14.4694   19.0164 C   0  0  0  0  0  0  0  0  0  0  0  0
   -1.0693   14.6603   17.8788 C   0  0  0  0  0  0  0  0  0  0  0  0
   -0.9881   15.8567   17.1733 C   0  0  0  0  0  0  0  0  0  0  0  0
   -0.1259   16.8644   17.6070 C   0  0  0  0  0  0  0  0  0  0  0  0
    0.6655   16.6932   18.7578 C   0  0  0  0  0  0  0  0  0  0  0  0
    1.5798   17.8288   19.2184 C   0  0  0  0  0  0  0  0  0  0  0  0
    0.7310   18.9851   19.7743 C   0  0  0  0  0  0  0  0  0  0  0  0
    6.4048   21.1459   21.9304 C   0  0  0  0  0  0  0  0  0  0  0  0
    6.1882   21.9530   22.8200 O   0  0  0  0  0  0  0  0  0  0  0  0
    7.5566   21.0208   21.2268 O   0  0  0  0  0  0  0  0  0  0  0  0
    9.2642   22.0613   19.8610 C   0  0  0  0  0  0  0  0  0  0  0  0
    7.7935   22.0288   20.2317 C   0  0  0  0  0  0  0  0  0  0  0  0
 21 22  1  0  0  0
 22 20  1  0  0  0
 20 18  1  0  0  0
 18 19  2  0  0  0
 18  1  1  0  0  0
  1  2  2  0  0  0
  2  3  1  0  0  0
  3  4  2  0  0  0
  4  7  1  0  0  0
  7  8  1  0  0  0
  8  9  1  0  0  0
  9 10  1  0  0  0
 10 11  2  0  0  0
 11 12  1  0  0  0
 12 13  2  0  0  0
 13 14  1  0  0  0
 14 15  2  0  0  0
 15 16  1  0  0  0
 16 17  1  0  0  0
  4  5  1  0  0  0
  5  6  2  0  0  0
  6  1  1  0  0  0
 16  7  1  0  0  0
 15 10  1  0  0  0
M  END
> <minimizedAffinity>
-7.93200

$$$$
OCNT-2312697


 22 25  0  0  0  0  0  0  0  0999 V2000
    1.1172   17.7072   18.8193 C   0  0  0  0  0  0  0  0  0  0  0  0
   -0.2781   18.3260   18.6707 C   0  0  0  0  0  0  0  0  0  0  0  0
    0.0160   19.8007   18.4427 C   0  0  0  0  0  0  0  0  0  0  0  0
    1.2081   20.0558   19.3539 C   0  0  0  0  0  0  0  0  0  0  0  0
    1.9420   18.7985   19.3449 N   0  0  0  0  0  0  0  0  0  0  0  0
    3.3150   18.6412   19.4971 C   0  0  0  0  0  0  0  0  0  0  0  0
    3.8735   17.6051   19.1349 O   0  0  0  0  0  0  0  0  0  0  0  0
    4.1322   19.7311   20.1151 C   0  0  0  0  0  0  0  0  0  0  0  0
    3.9463   21.0235   19.6980 N   0  0  0  0  0  0  0  0  0  0  0  0
    4.6548   22.0226   20.2726 C   0  0  0  0  0  0  0  0  0  0  0  0
    5.5872   21.8557   21.2783 C   0  0  0  0  0  0  0  0  0  0  0  0
    5.7460   20.5398   21.6796 C   0  0  0  0  0  0  0  0  0  0  0  0
    5.0512   19.4629   21.1419 C   0  0  0  0  0  0  0  0  0  0  0  0
    5.5233   18.3210   21.8522 C   0  0  0  0  0  0  0  0  0  0  0  0
    6.4567   18.7736   22.7545 C   0  0  0  0  0  0  0  0  0  0  0  0
    6.5999   20.1198   22.6539 O   0  0  0  0  0  0  0  0  0  0  0  0
    1.8454   14.2799   22.3116 C   0  0  0  0  0  0  0  0  0  0  0  0
    1.3351   15.0017   21.1319 C   0  0  0  0  0  0  0  0  0  0  0  0
    0.3995   14.4919   20.3218 N   0  0  0  0  0  0  0  0  0  0  0  0
    0.2194   15.5000   19.3720 O   0  0  0  0  0  0  0  0  0  0  0  0
    1.0752   16.5121   19.7117 C   0  0  0  0  0  0  0  0  0  0  0  0
    1.8040   16.2389   20.7740 N   0  0  0  0  0  0  0  0  0  0  0  0
 17 18  1  0  0  0
 18 19  2  0  0  0
 19 20  1  0  0  0
 20 21  1  0  0  0
 21  1  1  0  0  0
  1  2  1  0  0  0
  2  3  1  0  0  0
  3  4  1  0  0  0
  4  5  1  0  0  0
  5  6  1  0  0  0
  6  7  2  0  0  0
  6  8  1  0  0  0
  8  9  1  0  0  0
  9 10  2  0  0  0
 10 11  1  0  0  0
 11 12  2  0  0  0
 12 13  1  0  0  0
 13 14  1  0  0  0
 14 15  2  0  0  0
 15 16  1  0  0  0
 21 22  2  0  0  0
 22 18  1  0  0  0
  5  1  1  0  0  0
 13  8  2  0  0  0
 16 12  1  0  0  0
M  END
> <minimizedAffinity>
-8.86051

$$$$
OCNT-2312704


 22 23  0  0  0  0  0  0  0  0999 V2000
    2.8659   17.3724   20.5392 N   0  0  0  0  0  0  0  0  0  0  0  0
    3.0492   17.2488   19.5496 H   0  0  0  0  0  0  0  0  0  0  0  0
    3.9703   18.0396   21.0460 C   0  0  0  0  0  0  0  0  0  0  0  0
    4.8814   17.3954   21.7856 N   0  0  0  0  0  0  0  0  0  0  0  0
    5.9143   18.1148   22.2554 C   0  0  0  0  0  0  0  0  0  0  0  0
    6.0761   19.4539   22.0073 C   0  0  0  0  0  0  0  0  0  0  0  0
    5.1000   20.0465   21.2280 C   0  0  0  0  0  0  0  0  0  0  0  0
    4.0467   19.3392   20.7408 N   0  0  0  0  0  0  0  0  0  0  0  0
    5.2162   21.5264   20.9091 C   0  0  0  0  0  0  0  0  0  0  0  0
    4.2804   21.9923   20.0353 F   0  0  0  0  0  0  0  0  0  0  0  0
    5.1087   22.3084   22.0235 F   0  0  0  0  0  0  0  0  0  0  0  0
    6.4267   21.8429   20.3609 F   0  0  0  0  0  0  0  0  0  0  0  0
    2.4836   16.1781   21.2758 C   0  0  0  0  0  0  0  0  0  0  0  0
    1.0115   14.1104   21.2598 C   0  0  0  0  0  0  0  0  0  0  0  0
    1.4499   15.3556   20.4774 C   0  0  0  0  0  0  0  0  0  0  0  0
    0.2408   16.2632   20.1452 C   0  0  0  0  0  0  0  0  0  0  0  0
    0.4279   17.1316   18.9698 N   0  0  0  0  0  0  0  0  0  0  0  0
   -0.4886   16.7236   17.8804 C   0  0  0  0  0  0  0  0  0  0  0  0
   -0.3564   17.6437   16.6572 C   0  0  0  0  0  0  0  0  0  0  0  0
   -0.6244   19.0075   17.0065 O   0  0  0  0  0  0  0  0  0  0  0  0
    0.2881   19.4370   18.0250 C   0  0  0  0  0  0  0  0  0  0  0  0
    0.1795   18.5570   19.2820 C   0  0  0  0  0  0  0  0  0  0  0  0
 14 15  1  0  0  0
 15 13  1  0  0  0
 13  1  1  0  0  0
  1  3  1  0  0  0
  3  4  2  0  0  0
  4  5  1  0  0  0
  5  6  2  0  0  0
  6  7  1  0  0  0
  7  9  1  0  0  0
  9 10  1  0  0  0
  9 11  1  0  0  0
  9 12  1  0  0  0
  7  8  2  0  0  0
 15 16  1  0  0  0
 16 17  1  0  0  0
 17 18  1  0  0  0
 18 19  1  0  0  0
 19 20  1  0  0  0
 20 21  1  0  0  0
 21 22  1  0  0  0
  8  3  1  0  0  0
 22 17  1  0  0  0
  1  2  1  0  0  0
M  END
> <minimizedAffinity>
-8.84894

$$$$
OCNT-2312712


 27 29  0  0  0  0  0  0  0  0999 V2000
   -0.2927   18.4773   16.7431 C   0  0  0  0  0  0  0  0  0  0  0  0
   -1.7680   18.8441   16.8607 C   0  0  0  0  0  0  0  0  0  0  0  0
    1.9200   20.0139   19.1052 C   0  0  0  0  0  0  0  0  0  0  0  0
    0.7470   20.5096   19.5374 N   0  0  0  0  0  0  0  0  0  0  0  0
   -0.1918   19.9498   18.6768 O   0  0  0  0  0  0  0  0  0  0  0  0
    0.5017   19.1673   17.8032 C   0  0  0  0  0  0  0  0  0  0  0  0
    1.7993   19.1703   18.0186 N   0  0  0  0  0  0  0  0  0  0  0  0
    5.7060   20.9572   20.8768 C   0  0  0  0  0  0  0  0  0  0  0  0
    4.9108   21.9617   20.3121 C   0  0  0  0  0  0  0  0  0  0  0  0
    3.6757   21.6498   19.7343 C   0  0  0  0  0  0  0  0  0  0  0  0
    3.2117   20.3275   19.7074 C   0  0  0  0  0  0  0  0  0  0  0  0
    4.0128   19.3232   20.2701 C   0  0  0  0  0  0  0  0  0  0  0  0
    5.2459   19.6359   20.8523 C   0  0  0  0  0  0  0  0  0  0  0  0
    8.0309   21.8330   20.5036 C   0  0  0  0  0  0  0  0  0  0  0  0
    7.0284   21.2981   21.5158 C   0  0  0  0  0  0  0  0  0  0  0  0
   -0.1261   17.0258   16.9246 N   0  0  0  0  0  0  0  0  0  0  0  0
    0.6022   16.5596   16.3799 H   0  0  0  0  0  0  0  0  0  0  0  0
   -0.4403   16.3406   18.4163 S   0  0  0  0  0  0  0  0  0  0  0  0
   -1.5651   17.0905   18.9327 O   0  0  0  0  0  0  0  0  0  0  0  0
   -0.4963   14.9087   18.2203 O   0  0  0  0  0  0  0  0  0  0  0  0
    1.0467   16.7893   19.3273 C   0  0  0  0  0  0  0  0  0  0  0  0
    1.2803   15.7842   20.4230 C   0  0  0  0  0  0  0  0  0  0  0  0
    0.3003   14.8294   20.7350 C   0  0  0  0  0  0  0  0  0  0  0  0
    0.5156   13.9018   21.7553 C   0  0  0  0  0  0  0  0  0  0  0  0
    1.7089   13.9199   22.4748 C   0  0  0  0  0  0  0  0  0  0  0  0
    2.6875   14.8669   22.1771 C   0  0  0  0  0  0  0  0  0  0  0  0
    2.4752   15.7961   21.1574 C   0  0  0  0  0  0  0  0  0  0  0  0
 14 15  1  0  0  0
 15  8  1  0  0  0
  8  9  1  0  0  0
  9 10  2  0  0  0
 10 11  1  0  0  0
 11  3  1  0  0  0
  3  4  2  0  0  0
  4  5  1  0  0  0
  5  6  1  0  0  0
  6  1  1  0  0  0
  1  2  1  0  0  0
  1 16  1  0  0  0
 16 18  1  0  0  0
 18 19  2  0  0  0
 18 20  2  0  0  0
 18 21  1  0  0  0
 21 22  1  0  0  0
 22 23  2  0  0  0
 23 24  1  0  0  0
 24 25  2  0  0  0
 25 26  1  0  0  0
 26 27  2  0  0  0
  6  7  2  0  0  0
 11 12  2  0  0  0
 12 13  1  0  0  0
 13  8  2  0  0  0
  7  3  1  0  0  0
 27 22  1  0  0  0
 16 17  1  0  0  0
M  END
> <minimizedAffinity>
-9.36759

$$$$
OCNT-2312714


 22 24  0  0  0  0  0  0  0  0999 V2000
    2.4621   17.9260   20.2184 N   0  0  0  0  0  0  0  0  0  0  0  0
    2.4565   19.2028   19.7041 C   0  0  0  0  0  0  0  0  0  0  0  0
    1.5514   19.6904   19.0321 O   0  0  0  0  0  0  0  0  0  0  0  0
    3.5807   19.9566   20.0500 N   0  0  0  0  0  0  0  0  0  0  0  0
    3.5779   21.3665   19.6686 C   0  0  0  0  0  0  0  0  0  0  0  0
    4.7736   22.1333   20.2359 C   0  0  0  0  0  0  0  0  0  0  0  0
    5.1023   21.6520   21.6480 C   0  0  0  0  0  0  0  0  0  0  0  0
    5.4342   20.1436   21.6810 C   0  0  0  0  0  0  0  0  0  0  0  0
    6.9269   19.8588   21.8341 C   0  0  0  0  0  0  0  0  0  0  0  0
    6.9540   18.4711   22.4511 C   0  0  0  0  0  0  0  0  0  0  0  0
    5.7020   18.2894   23.1311 O   0  0  0  0  0  0  0  0  0  0  0  0
    4.9218   19.4826   22.9598 C   0  0  0  0  0  0  0  0  0  0  0  0
    4.8797   19.4084   20.4374 C   0  0  0  0  0  0  0  0  0  0  0  0
    3.0207   17.8159   21.0477 H   0  0  0  0  0  0  0  0  0  0  0  0
   -1.2268   15.9843   17.4944 C   0  0  0  0  0  0  0  0  0  0  0  0
   -0.2213   15.8674   18.6016 C   0  0  0  0  0  0  0  0  0  0  0  0
   -0.1707   14.7233   19.3979 C   0  0  0  0  0  0  0  0  0  0  0  0
    0.7516   14.6351   20.4398 C   0  0  0  0  0  0  0  0  0  0  0  0
    1.6323   15.6945   20.7169 C   0  0  0  0  0  0  0  0  0  0  0  0
    2.6074   15.5346   21.8531 C   0  0  0  0  0  0  0  0  0  0  0  0
    1.5674   16.8681   19.9352 C   0  0  0  0  0  0  0  0  0  0  0  0
    0.6443   16.9351   18.8833 C   0  0  0  0  0  0  0  0  0  0  0  0
 15 16  1  0  0  0
 16 17  1  0  0  0
 17 18  2  0  0  0
 18 19  1  0  0  0
 19 20  1  0  0  0
 19 21  2  0  0  0
 21  1  1  0  0  0
  1  2  1  0  0  0
  2  3  2  0  0  0
  2  4  1  0  0  0
  4  5  1  0  0  0
  5  6  1  0  0  0
  6  7  1  0  0  0
  7  8  1  0  0  0
  8  9  1  0  0  0
  9 10  1  0  0  0
 10 11  1  0  0  0
 11 12  1  0  0  0
  8 13  1  0  0  0
 21 22  1  0  0  0
 22 16  2  0  0  0
 13  4  1  0  0  0
 12  8  1  0  0  0
  1 14  1  0  0  0
M  END
> <minimizedAffinity>
-10.43638

$$$$
OCNT-2312720


 24 28  0  0  0  0  0  0  0  0999 V2000
   -0.4667   14.2842   19.1329 C   0  0  0  0  0  0  0  0  0  0  0  0
    0.5793   15.1485   19.7816 C   0  0  0  0  0  0  0  0  0  0  0  0
    1.3396   14.5704   20.8163 C   0  0  0  0  0  0  0  0  0  0  0  0
    2.3403   15.2921   21.4687 C   0  0  0  0  0  0  0  0  0  0  0  0
    2.6122   16.6112   21.0997 C   0  0  0  0  0  0  0  0  0  0  0  0
    1.8659   17.1797   20.0579 C   0  0  0  0  0  0  0  0  0  0  0  0
    0.8572   16.4692   19.3772 C   0  0  0  0  0  0  0  0  0  0  0  0
    3.6510   17.3699   21.7878 C   0  0  0  0  0  0  0  0  0  0  0  0
    3.7766   17.4405   23.1241 N   0  0  0  0  0  0  0  0  0  0  0  0
    4.8936   18.2488   23.3111 O   0  0  0  0  0  0  0  0  0  0  0  0
    5.3394   18.5940   22.0694 C   0  0  0  0  0  0  0  0  0  0  0  0
    4.6132   18.0827   21.1026 N   0  0  0  0  0  0  0  0  0  0  0  0
    6.5915   19.4891   21.8386 C   0  0  0  0  0  0  0  0  0  0  0  0
    6.9683   20.5314   22.8586 C   0  0  0  0  0  0  0  0  0  0  0  0
    6.4373   20.9649   21.5110 C   0  0  0  0  0  0  0  0  0  0  0  0
    5.1122   21.6531   21.4163 C   0  0  0  0  0  0  0  0  0  0  0  0
    5.1789   22.2636   20.0274 C   0  0  0  0  0  0  0  0  0  0  0  0
    6.5585   22.6204   19.8479 O   0  0  0  0  0  0  0  0  0  0  0  0
    7.3400   21.6003   20.4945 C   0  0  0  0  0  0  0  0  0  0  0  0
    0.2080   17.1538   18.3589 N   0  0  0  0  0  0  0  0  0  0  0  0
   -1.2095   17.4792   18.5031 C   0  0  0  0  0  0  0  0  0  0  0  0
   -1.4339   18.5205   17.4108 C   0  0  0  0  0  0  0  0  0  0  0  0
   -0.1324   19.3082   17.4326 C   0  0  0  0  0  0  0  0  0  0  0  0
    0.9311   18.2394   17.6887 C   0  0  0  0  0  0  0  0  0  0  0  0
  1  2  1  0  0  0
  2  3  1  0  0  0
  3  4  2  0  0  0
  4  5  1  0  0  0
  5  8  1  0  0  0
  8  9  2  0  0  0
  9 10  1  0  0  0
 10 11  1  0  0  0
 11 13  1  0  0  0
 13 14  1  0  0  0
 14 15  1  0  0  0
 15 16  1  0  0  0
 16 17  1  0  0  0
 17 18  1  0  0  0
 18 19  1  0  0  0
 11 12  2  0  0  0
  5  6  2  0  0  0
  6  7  1  0  0  0
  7 20  1  0  0  0
 20 21  1  0  0  0
 21 22  1  0  0  0
 22 23  1  0  0  0
 23 24  1  0  0  0
  7  2  2  0  0  0
 24 20  1  0  0  0
 12  8  1  0  0  0
 15 13  1  0  0  0
 19 15  1  0  0  0
M  END
> <minimizedAffinity>
-10.06637

$$$$
OCNT-2312722


 28 32  0  0  0  0  0  0  0  0999 V2000
    1.3984   18.4272   18.9442 C   0  0  0  0  0  0  0  0  0  0  0  0
    2.4418   17.9615   19.8193 N   0  0  0  0  0  0  0  0  0  0  0  0
    3.6636   18.5609   20.0322 C   0  0  0  0  0  0  0  0  0  0  0  0
    4.2705   17.9281   21.0165 N   0  0  0  0  0  0  0  0  0  0  0  0
    3.4657   16.8965   21.4241 N   0  0  0  0  0  0  0  0  0  0  0  0
    2.3858   16.8843   20.6714 C   0  0  0  0  0  0  0  0  0  0  0  0
    1.3179   16.0344   20.7290 N   0  0  0  0  0  0  0  0  0  0  0  0
    0.8573   15.4913   19.4332 C   0  0  0  0  0  0  0  0  0  0  0  0
   -0.4619   14.7377   19.6379 C   0  0  0  0  0  0  0  0  0  0  0  0
   -0.3323   13.6756   20.5910 O   0  0  0  0  0  0  0  0  0  0  0  0
    0.1669   14.1135   21.8864 C   0  0  0  0  0  0  0  0  0  0  0  0
   -0.9304   14.9506   22.5888 C   0  0  0  0  0  0  0  0  0  0  0  0
   -0.8494   15.0054   24.1142 C   0  0  0  0  0  0  0  0  0  0  0  0
   -1.6196   13.8671   24.7835 C   0  0  0  0  0  0  0  0  0  0  0  0
   -0.9777   12.4900   24.6596 C   0  0  0  0  0  0  0  0  0  0  0  0
   -0.6574   12.0477   23.2329 C   0  0  0  0  0  0  0  0  0  0  0  0
    0.5282   12.8105   22.6387 C   0  0  0  0  0  0  0  0  0  0  0  0
    1.4882   14.9303   21.7099 C   0  0  0  0  0  0  0  0  0  0  0  0
    4.1687   19.7713   19.3051 C   0  0  0  0  0  0  0  0  0  0  0  0
    3.4261   21.0638   19.6471 C   0  0  0  0  0  0  0  0  0  0  0  0
    3.6615   21.5170   20.9838 O   0  0  0  0  0  0  0  0  0  0  0  0
    4.9750   21.3938   21.3442 C   0  0  0  0  0  0  0  0  0  0  0  0
    5.3676   22.0711   22.4982 C   0  0  0  0  0  0  0  0  0  0  0  0
    6.6957   22.0116   22.9242 C   0  0  0  0  0  0  0  0  0  0  0  0
    7.6292   21.2712   22.1980 C   0  0  0  0  0  0  0  0  0  0  0  0
    7.2324   20.5808   21.0504 C   0  0  0  0  0  0  0  0  0  0  0  0
    5.9025   20.6313   20.6314 C   0  0  0  0  0  0  0  0  0  0  0  0
    5.5860   19.8992   19.5175 O   0  0  0  0  0  0  0  0  0  0  0  0
  1  2  1  0  0  0
  2  3  1  0  0  0
  3 19  1  0  0  0
 19 20  1  0  0  0
 20 21  1  0  0  0
 21 22  1  0  0  0
 22 23  2  0  0  0
 23 24  1  0  0  0
 24 25  2  0  0  0
 25 26  1  0  0  0
 26 27  2  0  0  0
 27 28  1  0  0  0
  3  4  2  0  0  0
  4  5  1  0  0  0
  5  6  2  0  0  0
  6  7  1  0  0  0
  7  8  1  0  0  0
  8  9  1  0  0  0
  9 10  1  0  0  0
 10 11  1  0  0  0
 11 12  1  0  0  0
 12 13  1  0  0  0
 13 14  1  0  0  0
 14 15  1  0  0  0
 15 16  1  0  0  0
 16 17  1  0  0  0
 11 18  1  0  0  0
  6  2  1  0  0  0
 18  7  1  0  0  0
 28 19  1  0  0  0
 17 11  1  0  0  0
 27 22  1  0  0  0
M  END
> <minimizedAffinity>
0.34898

$$$$
OCNT-2312730


 24 26  0  0  0  0  0  0  0  0999 V2000
    1.2277   15.9378   20.5012 C   0  0  0  0  0  0  0  0  0  0  0  0
    1.7651   14.8305   21.1785 C   0  0  0  0  0  0  0  0  0  0  0  0
    3.0381   14.8609   21.7516 C   0  0  0  0  0  0  0  0  0  0  0  0
    3.8164   16.0089   21.6504 C   0  0  0  0  0  0  0  0  0  0  0  0
    3.3307   17.1254   20.9679 C   0  0  0  0  0  0  0  0  0  0  0  0
    2.0522   17.0726   20.3951 C   0  0  0  0  0  0  0  0  0  0  0  0
   -0.9618   17.3903   17.5737 N   0  0  0  0  0  0  0  0  0  0  0  0
   -0.7236   18.0228   18.8943 C   0  0  0  0  0  0  0  0  0  0  0  0
   -0.9207   17.0400   20.0757 C   0  0  0  0  0  0  0  0  0  0  0  0
   -0.0472   15.8521   19.9323 N   0  0  0  0  0  0  0  0  0  0  0  0
   -0.2476   15.1980   18.6214 C   0  0  0  0  0  0  0  0  0  0  0  0
   -0.0863   16.1960   17.4490 C   0  0  0  0  0  0  0  0  0  0  0  0
    0.2311   19.4580   16.8444 C   0  0  0  0  0  0  0  0  0  0  0  0
   -0.7029   18.3158   16.4606 C   0  0  0  0  0  0  0  0  0  0  0  0
    4.1760   18.2482   20.8989 N   0  0  0  0  0  0  0  0  0  0  0  0
    4.8012   18.9224   21.9289 C   0  0  0  0  0  0  0  0  0  0  0  0
    4.7454   18.6629   23.1249 O   0  0  0  0  0  0  0  0  0  0  0  0
    4.3709   18.6319   19.9774 H   0  0  0  0  0  0  0  0  0  0  0  0
    5.5895   20.0432   21.4194 C   0  0  0  0  0  0  0  0  0  0  0  0
    5.1485   21.0858   20.6298 C   0  0  0  0  0  0  0  0  0  0  0  0
    3.8516   21.4611   20.0390 C   0  0  0  0  0  0  0  0  0  0  0  0
    6.2145   21.9081   20.3868 O   0  0  0  0  0  0  0  0  0  0  0  0
    7.2474   21.3165   21.0450 C   0  0  0  0  0  0  0  0  0  0  0  0
    6.9463   20.2059   21.6800 N   0  0  0  0  0  0  0  0  0  0  0  0
 13 14  1  0  0  0
 14  7  1  0  0  0
  7  8  1  0  0  0
  8  9  1  0  0  0
  9 10  1  0  0  0
 10  1  1  0  0  0
  1  2  2  0  0  0
  2  3  1  0  0  0
  3  4  2  0  0  0
  4  5  1  0  0  0
  5 15  1  0  0  0
 15 16  1  0  0  0
 16 17  2  0  0  0
 16 19  1  0  0  0
 19 20  2  0  0  0
 20 21  1  0  0  0
 20 22  1  0  0  0
 22 23  1  0  0  0
 23 24  2  0  0  0
  5  6  2  0  0  0
 10 11  1  0  0  0
 11 12  1  0  0  0
 12  7  1  0  0  0
  6  1  1  0  0  0
 24 19  1  0  0  0
 15 18  1  0  0  0
M  END
> <minimizedAffinity>
-7.77785

$$$$
OCNT-2312735


 26 29  0  0  0  0  0  0  0  0999 V2000
   -0.0617   15.4018   19.6608 C   0  0  0  0  0  0  0  0  0  0  0  0
    1.1847   15.5023   20.4921 C   0  0  0  0  0  0  0  0  0  0  0  0
    2.0663   16.5849   20.3179 C   0  0  0  0  0  0  0  0  0  0  0  0
    3.2321   16.7186   21.0825 C   0  0  0  0  0  0  0  0  0  0  0  0
    3.5065   15.7234   22.0357 C   0  0  0  0  0  0  0  0  0  0  0  0
    2.6474   14.6375   22.2207 C   0  0  0  0  0  0  0  0  0  0  0  0
    1.5013   14.5191   21.4349 C   0  0  0  0  0  0  0  0  0  0  0  0
    4.1551   17.7702   20.9320 N   0  0  0  0  0  0  0  0  0  0  0  0
    5.1028   17.5046   21.1516 H   0  0  0  0  0  0  0  0  0  0  0  0
    4.0064   19.1151   20.5615 C   0  0  0  0  0  0  0  0  0  0  0  0
    4.9542   20.0920   20.9076 C   0  0  0  0  0  0  0  0  0  0  0  0
    6.1754   20.1941   21.6250 C   0  0  0  0  0  0  0  0  0  0  0  0
    6.9304   19.1367   22.3359 C   0  0  0  0  0  0  0  0  0  0  0  0
    6.6481   21.4473   21.6180 N   0  0  0  0  0  0  0  0  0  0  0  0
    5.7286   22.1887   20.8943 O   0  0  0  0  0  0  0  0  0  0  0  0
    4.7169   21.3821   20.4703 C   0  0  0  0  0  0  0  0  0  0  0  0
    3.6792   21.8198   19.7450 N   0  0  0  0  0  0  0  0  0  0  0  0
    2.8367   20.8240   19.4640 C   0  0  0  0  0  0  0  0  0  0  0  0
    2.9438   19.5315   19.8236 N   0  0  0  0  0  0  0  0  0  0  0  0
    0.6262   13.4734   21.6224 O   0  0  0  0  0  0  0  0  0  0  0  0
   -0.1911   13.5307   22.7244 C   0  0  0  0  0  0  0  0  0  0  0  0
   -0.3426   14.6549   23.5337 C   0  0  0  0  0  0  0  0  0  0  0  0
   -1.1760   14.5840   24.6481 C   0  0  0  0  0  0  0  0  0  0  0  0
   -1.8181   13.3850   24.9174 C   0  0  0  0  0  0  0  0  0  0  0  0
   -1.6795   12.2726   24.1640 N   0  0  0  0  0  0  0  0  0  0  0  0
   -0.8601   12.3702   23.0893 C   0  0  0  0  0  0  0  0  0  0  0  0
  1  2  1  0  0  0
  2  3  1  0  0  0
  3  4  2  0  0  0
  4  8  1  0  0  0
  8 10  1  0  0  0
 10 11  2  0  0  0
 11 12  1  0  0  0
 12 13  1  0  0  0
 12 14  2  0  0  0
 14 15  1  0  0  0
 15 16  1  0  0  0
 16 17  2  0  0  0
 17 18  1  0  0  0
 18 19  2  0  0  0
  4  5  1  0  0  0
  5  6  2  0  0  0
  6  7  1  0  0  0
  7 20  1  0  0  0
 20 21  1  0  0  0
 21 22  1  0  0  0
 22 23  2  0  0  0
 23 24  1  0  0  0
 24 25  2  0  0  0
 25 26  1  0  0  0
  7  2  2  0  0  0
 26 21  2  0  0  0
 19 10  1  0  0  0
 16 11  1  0  0  0
  8  9  1  0  0  0
M  END
> <minimizedAffinity>
-7.96649

$$$$
OCNT-2312740


 24 27  0  0  0  0  0  0  0  0999 V2000
    0.3767   16.8052   19.0378 C   0  0  0  0  0  0  0  0  0  0  0  0
   -0.0913   15.5720   19.5141 C   0  0  0  0  0  0  0  0  0  0  0  0
    0.6012   14.8854   20.5141 C   0  0  0  0  0  0  0  0  0  0  0  0
    1.7703   15.4234   21.0518 C   0  0  0  0  0  0  0  0  0  0  0  0
    2.2622   16.6547   20.5996 C   0  0  0  0  0  0  0  0  0  0  0  0
    1.5550   17.3344   19.5941 C   0  0  0  0  0  0  0  0  0  0  0  0
   -3.2301   19.0796   16.4572 C   0  0  0  0  0  0  0  0  0  0  0  0
   -1.8981   18.5659   16.8327 C   0  0  0  0  0  0  0  0  0  0  0  0
   -0.7749   18.6786   16.1626 N   0  0  0  0  0  0  0  0  0  0  0  0
    0.2098   18.0455   16.8836 N   0  0  0  0  0  0  0  0  0  0  0  0
   -0.3189   17.5567   17.9907 C   0  0  0  0  0  0  0  0  0  0  0  0
   -1.6559   17.8686   17.9842 N   0  0  0  0  0  0  0  0  0  0  0  0
   -2.3354   17.6212   18.6851 H   0  0  0  0  0  0  0  0  0  0  0  0
    3.4864   17.2085   21.1708 C   0  0  0  0  0  0  0  0  0  0  0  0
    4.3426   16.5136   21.9358 N   0  0  0  0  0  0  0  0  0  0  0  0
    5.3396   17.4349   22.2450 O   0  0  0  0  0  0  0  0  0  0  0  0
    4.9912   18.6063   21.6377 C   0  0  0  0  0  0  0  0  0  0  0  0
    3.8671   18.5183   20.9584 N   0  0  0  0  0  0  0  0  0  0  0  0
    5.9288   19.7616   21.7913 C   0  0  0  0  0  0  0  0  0  0  0  0
    7.2243   19.3085   22.4680 C   0  0  0  0  0  0  0  0  0  0  0  0
    6.1979   20.4682   20.4585 C   0  0  0  0  0  0  0  0  0  0  0  0
    6.2949   21.9208   20.8578 C   0  0  0  0  0  0  0  0  0  0  0  0
    5.2620   22.0041   21.9561 C   0  0  0  0  0  0  0  0  0  0  0  0
    5.3086   20.7511   22.6486 O   0  0  0  0  0  0  0  0  0  0  0  0
  7  8  1  0  0  0
  8  9  2  0  0  0
  9 10  1  0  0  0
 10 11  2  0  0  0
 11  1  1  0  0  0
  1  2  2  0  0  0
  2  3  1  0  0  0
  3  4  2  0  0  0
  4  5  1  0  0  0
  5 14  1  0  0  0
 14 15  2  0  0  0
 15 16  1  0  0  0
 16 17  1  0  0  0
 17 19  1  0  0  0
 19 20  1  0  0  0
 19 21  1  0  0  0
 21 22  1  0  0  0
 22 23  1  0  0  0
 23 24  1  0  0  0
 17 18  2  0  0  0
  5  6  2  0  0  0
 11 12  1  0  0  0
 12  8  1  0  0  0
  6  1  1  0  0  0
 18 14  1  0  0  0
 24 19  1  0  0  0
 12 13  1  0  0  0
M  END
> <minimizedAffinity>
-10.66414

$$$$
OCNT-2312741


 24 27  0  0  0  0  0  0  0  0999 V2000
    0.9349   14.6941   20.3475 C   0  0  0  0  0  0  0  0  0  0  0  0
   -0.1502   14.3800   19.5344 C   0  0  0  0  0  0  0  0  0  0  0  0
   -0.6753   15.3410   18.6665 C   0  0  0  0  0  0  0  0  0  0  0  0
   -0.1247   16.6294   18.5994 C   0  0  0  0  0  0  0  0  0  0  0  0
   -0.7223   17.6337   17.6458 C   0  0  0  0  0  0  0  0  0  0  0  0
   -0.4340   19.0731   18.0622 C   0  0  0  0  0  0  0  0  0  0  0  0
    1.0641   19.2719   18.2484 C   0  0  0  0  0  0  0  0  0  0  0  0
    1.6148   18.3397   19.3430 C   0  0  0  0  0  0  0  0  0  0  0  0
    0.9980   16.9468   19.3867 C   0  0  0  0  0  0  0  0  0  0  0  0
    1.4954   15.9722   20.2737 C   0  0  0  0  0  0  0  0  0  0  0  0
    2.5239   14.4302   22.0945 C   0  0  0  0  0  0  0  0  0  0  0  0
    1.5359   13.8575   21.2480 O   0  0  0  0  0  0  0  0  0  0  0  0
    3.0795   18.3515   19.3504 N   0  0  0  0  0  0  0  0  0  0  0  0
    3.4703   19.0151   18.6828 H   0  0  0  0  0  0  0  0  0  0  0  0
    3.7737   18.5285   20.5707 C   0  0  0  0  0  0  0  0  0  0  0  0
    3.8139   17.5186   21.4703 N   0  0  0  0  0  0  0  0  0  0  0  0
    4.5259   17.7035   22.5943 C   0  0  0  0  0  0  0  0  0  0  0  0
    5.2283   18.8565   22.8666 C   0  0  0  0  0  0  0  0  0  0  0  0
    5.2048   19.8867   21.9489 C   0  0  0  0  0  0  0  0  0  0  0  0
    5.8932   21.0140   22.2260 N   0  0  0  0  0  0  0  0  0  0  0  0
    5.8341   22.0006   21.3061 C   0  0  0  0  0  0  0  0  0  0  0  0
    5.1079   21.8778   20.1414 C   0  0  0  0  0  0  0  0  0  0  0  0
    4.4106   20.7615   19.8456 N   0  0  0  0  0  0  0  0  0  0  0  0
    4.4644   19.7440   20.7548 C   0  0  0  0  0  0  0  0  0  0  0  0
 11 12  1  0  0  0
 12  1  1  0  0  0
  1  2  1  0  0  0
  2  3  2  0  0  0
  3  4  1  0  0  0
  4  5  1  0  0  0
  5  6  1  0  0  0
  6  7  1  0  0  0
  7  8  1  0  0  0
  8 13  1  0  0  0
 13 15  1  0  0  0
 15 16  1  0  0  0
 16 17  2  0  0  0
 17 18  1  0  0  0
 18 19  2  0  0  0
 19 20  1  0  0  0
 20 21  2  0  0  0
 21 22  1  0  0  0
 22 23  2  0  0  0
 23 24  1  0  0  0
  8  9  1  0  0  0
  9 10  1  0  0  0
 10  1  2  0  0  0
  9  4  2  0  0  0
 24 15  2  0  0  0
 24 19  1  0  0  0
 13 14  1  0  0  0
M  END
> <minimizedAffinity>
-11.46587

$$$$
OCNT-2312749


 23 25  0  0  0  0  0  0  0  0999 V2000
    3.7485   17.6577   21.7185 C   0  0  0  0  0  0  0  0  0  0  0  0
    3.5174   16.3125   21.9442 C   0  0  0  0  0  0  0  0  0  0  0  0
    2.4617   15.9259   21.0803 C   0  0  0  0  0  0  0  0  0  0  0  0
    2.0924   17.0498   20.3695 C   0  0  0  0  0  0  0  0  0  0  0  0
    2.8741   18.0996   20.7614 O   0  0  0  0  0  0  0  0  0  0  0  0
    1.0943   17.3400   19.3423 C   0  0  0  0  0  0  0  0  0  0  0  0
    1.0871   18.5735   18.6687 C   0  0  0  0  0  0  0  0  0  0  0  0
    0.1327   18.8547   17.6843 C   0  0  0  0  0  0  0  0  0  0  0  0
   -0.8331   17.9067   17.3551 C   0  0  0  0  0  0  0  0  0  0  0  0
   -0.8432   16.6788   18.0109 C   0  0  0  0  0  0  0  0  0  0  0  0
    0.1115   16.4047   18.9916 C   0  0  0  0  0  0  0  0  0  0  0  0
    0.0572   15.2056   19.5928 F   0  0  0  0  0  0  0  0  0  0  0  0
    4.7844   19.8070   21.5650 N   0  0  0  0  0  0  0  0  0  0  0  0
    4.6817   18.6223   22.2773 C   0  0  0  0  0  0  0  0  0  0  0  0
    5.3225   18.4173   23.3037 O   0  0  0  0  0  0  0  0  0  0  0  0
    4.0348   19.9768   20.9101 H   0  0  0  0  0  0  0  0  0  0  0  0
    5.0026   22.2368   19.7552 C   0  0  0  0  0  0  0  0  0  0  0  0
    6.0004   21.9069   20.8497 C   0  0  0  0  0  0  0  0  0  0  0  0
    7.1292   21.2181   20.2680 O   0  0  0  0  0  0  0  0  0  0  0  0
    7.7236   20.3992   21.2830 C   0  0  0  0  0  0  0  0  0  0  0  0
    6.8877   20.5533   22.5413 C   0  0  0  0  0  0  0  0  0  0  0  0
    5.5233   21.0089   22.0119 C   0  0  0  0  0  0  0  0  0  0  0  0
    4.7761   21.7902   23.0986 C   0  0  0  0  0  0  0  0  0  0  0  0
 17 18  1  0  0  0
 18 19  1  0  0  0
 19 20  1  0  0  0
 20 21  1  0  0  0
 21 22  1  0  0  0
 22 23  1  0  0  0
 22 13  1  0  0  0
 13 14  1  0  0  0
 14 15  2  0  0  0
 14  1  1  0  0  0
  1  2  2  0  0  0
  2  3  1  0  0  0
  3  4  2  0  0  0
  4  6  1  0  0  0
  6  7  2  0  0  0
  7  8  1  0  0  0
  8  9  2  0  0  0
  9 10  1  0  0  0
 10 11  2  0  0  0
 11 12  1  0  0  0
  4  5  1  0  0  0
 22 18  1  0  0  0
  5  1  1  0  0  0
 11  6  1  0  0  0
 13 16  1  0  0  0
M  END
> <minimizedAffinity>
-9.15857

$$$$
OCNT-2312755


 26 28  0  0  0  0  0  0  0  0999 V2000
    2.1178   19.3079   18.9887 C   0  0  0  0  0  0  0  0  0  0  0  0
    0.8234   19.7941   19.6399 C   0  0  0  0  0  0  0  0  0  0  0  0
   -0.1819   18.7202   19.2418 C   0  0  0  0  0  0  0  0  0  0  0  0
    0.5994   17.4932   19.3392 N   0  0  0  0  0  0  0  0  0  0  0  0
    2.0341   17.7697   19.1484 C   0  0  0  0  0  0  0  0  0  0  0  0
    0.1241   16.2709   18.9022 C   0  0  0  0  0  0  0  0  0  0  0  0
   -0.5503   16.2833   17.6644 C   0  0  0  0  0  0  0  0  0  0  0  0
   -1.0798   15.1266   17.0918 C   0  0  0  0  0  0  0  0  0  0  0  0
   -0.9509   13.9159   17.7527 C   0  0  0  0  0  0  0  0  0  0  0  0
   -0.3043   13.8761   18.9858 C   0  0  0  0  0  0  0  0  0  0  0  0
    0.2252   15.0449   19.5849 C   0  0  0  0  0  0  0  0  0  0  0  0
    0.8809   14.8879   20.9333 C   0  0  0  0  0  0  0  0  0  0  0  0
    1.7051   15.9133   21.2930 F   0  0  0  0  0  0  0  0  0  0  0  0
    1.6371   13.7546   21.0176 F   0  0  0  0  0  0  0  0  0  0  0  0
   -0.0197   14.7891   21.9577 F   0  0  0  0  0  0  0  0  0  0  0  0
    3.9493   19.3093   20.6317 C   0  0  0  0  0  0  0  0  0  0  0  0
    3.5307   18.2844   21.1591 O   0  0  0  0  0  0  0  0  0  0  0  0
    3.2883   19.9284   19.5907 N   0  0  0  0  0  0  0  0  0  0  0  0
    3.8398   20.5363   19.0017 H   0  0  0  0  0  0  0  0  0  0  0  0
    5.1530   22.3611   20.0207 C   0  0  0  0  0  0  0  0  0  0  0  0
    5.7392   21.2228   20.7684 C   0  0  0  0  0  0  0  0  0  0  0  0
    6.9457   21.3690   21.3303 N   0  0  0  0  0  0  0  0  0  0  0  0
    7.1929   20.1924   22.0060 O   0  0  0  0  0  0  0  0  0  0  0  0
    6.1475   19.3435   21.8373 C   0  0  0  0  0  0  0  0  0  0  0  0
    6.2523   18.0349   22.5129 C   0  0  0  0  0  0  0  0  0  0  0  0
    5.1955   19.9322   21.0287 C   0  0  0  0  0  0  0  0  0  0  0  0
 20 21  1  0  0  0
 21 22  2  0  0  0
 22 23  1  0  0  0
 23 24  1  0  0  0
 24 25  1  0  0  0
 24 26  2  0  0  0
 26 16  1  0  0  0
 16 17  2  0  0  0
 16 18  1  0  0  0
 18  1  1  0  0  0
  1  2  1  0  0  0
  2  3  1  0  0  0
  3  4  1  0  0  0
  4  6  1  0  0  0
  6  7  2  0  0  0
  7  8  1  0  0  0
  8  9  2  0  0  0
  9 10  1  0  0  0
 10 11  2  0  0  0
 11 12  1  0  0  0
 12 13  1  0  0  0
 12 14  1  0  0  0
 12 15  1  0  0  0
  4  5  1  0  0  0
 26 21  1  0  0  0
  5  1  1  0  0  0
 11  6  1  0  0  0
 18 19  1  0  0  0
M  END
> <minimizedAffinity>
-10.41313

$$$$
OCNT-2312760


 22 25  0  0  0  0  0  0  0  0999 V2000
    3.6151   20.5293   19.0020 C   0  0  0  0  0  0  0  0  0  0  0  0
    1.1951   17.8776   19.5339 C   0  0  0  0  0  0  0  0  0  0  0  0
    2.4075   18.3908   19.4681 N   0  0  0  0  0  0  0  0  0  0  0  0
    2.3417   19.7395   19.1254 C   0  0  0  0  0  0  0  0  0  0  0  0
    1.0593   20.2152   18.9259 C   0  0  0  0  0  0  0  0  0  0  0  0
   -0.0824   18.9639   19.1727 S   0  0  0  0  0  0  0  0  0  0  0  0
    0.0798   14.2168   19.8792 C   0  0  0  0  0  0  0  0  0  0  0  0
    0.0340   15.4718   19.3106 C   0  0  0  0  0  0  0  0  0  0  0  0
    0.9660   16.3669   19.9152 C   0  0  0  0  0  0  0  0  0  0  0  0
    1.6879   15.7581   20.9193 C   0  0  0  0  0  0  0  0  0  0  0  0
    1.2385   14.1206   21.1345 S   0  0  0  0  0  0  0  0  0  0  0  0
    4.2520   20.7189   20.3179 N   0  0  0  0  0  0  0  0  0  0  0  0
    4.7630   22.0932   20.4619 C   0  0  0  0  0  0  0  0  0  0  0  0
    6.2745   21.9913   20.4619 C   0  0  0  0  0  0  0  0  0  0  0  0
    6.5083   20.6538   21.1238 C   0  0  0  0  0  0  0  0  0  0  0  0
    5.3876   19.7862   20.5492 C   0  0  0  0  0  0  0  0  0  0  0  0
    5.0539   18.6709   21.4826 C   0  0  0  0  0  0  0  0  0  0  0  0
    4.9013   18.7201   22.7922 N   0  0  0  0  0  0  0  0  0  0  0  0
    4.6012   17.4277   23.1173 C   0  0  0  0  0  0  0  0  0  0  0  0
    4.5648   16.5721   22.0944 N   0  0  0  0  0  0  0  0  0  0  0  0
    4.8608   17.3836   21.0638 N   0  0  0  0  0  0  0  0  0  0  0  0
    4.9566   17.0202   20.1186 H   0  0  0  0  0  0  0  0  0  0  0  0
  7  8  2  0  0  0
  8  9  1  0  0  0
  9  2  1  0  0  0
  2  3  2  0  0  0
  3  4  1  0  0  0
  4  1  1  0  0  0
  1 12  1  0  0  0
 12 13  1  0  0  0
 13 14  1  0  0  0
 14 15  1  0  0  0
 15 16  1  0  0  0
 16 17  1  0  0  0
 17 18  2  0  0  0
 18 19  1  0  0  0
 19 20  2  0  0  0
 20 21  1  0  0  0
  4  5  2  0  0  0
  5  6  1  0  0  0
  9 10  2  0  0  0
 10 11  1  0  0  0
 11  7  1  0  0  0
  6  2  1  0  0  0
 16 12  1  0  0  0
 21 17  1  0  0  0
 21 22  1  0  0  0
M  END
> <minimizedAffinity>
-7.64208

$$$$
OCNT-2312771


 24 26  0  0  0  0  0  0  0  0999 V2000
    2.4903   19.7186   19.1993 C   0  0  0  0  0  0  0  0  0  0  0  0
    2.7173   18.4823   19.7557 C   0  0  0  0  0  0  0  0  0  0  0  0
    3.8344   18.3493   20.5747 C   0  0  0  0  0  0  0  0  0  0  0  0
    4.6822   19.4441   20.8451 C   0  0  0  0  0  0  0  0  0  0  0  0
    5.8238   19.3913   21.6825 C   0  0  0  0  0  0  0  0  0  0  0  0
    6.6157   20.5192   21.8861 C   0  0  0  0  0  0  0  0  0  0  0  0
    6.2811   21.7103   21.2578 C   0  0  0  0  0  0  0  0  0  0  0  0
    5.1551   21.7661   20.4325 C   0  0  0  0  0  0  0  0  0  0  0  0
    4.3474   20.6577   20.2137 C   0  0  0  0  0  0  0  0  0  0  0  0
    3.2826   20.7908   19.4039 N   0  0  0  0  0  0  0  0  0  0  0  0
    4.0843   17.0236   21.1721 C   0  0  0  0  0  0  0  0  0  0  0  0
    5.2373   16.7422   21.4865 O   0  0  0  0  0  0  0  0  0  0  0  0
    3.0010   16.1694   21.3625 N   0  0  0  0  0  0  0  0  0  0  0  0
    1.6498   16.3987   20.8393 C   0  0  0  0  0  0  0  0  0  0  0  0
    0.9910   15.0932   20.4056 C   0  0  0  0  0  0  0  0  0  0  0  0
    0.9223   14.0725   21.5508 C   0  0  0  0  0  0  0  0  0  0  0  0
    1.9526   14.3478   22.6498 C   0  0  0  0  0  0  0  0  0  0  0  0
    3.2382   14.9159   22.0731 C   0  0  0  0  0  0  0  0  0  0  0  0
   -0.3707   14.1107   22.1677 O   0  0  0  0  0  0  0  0  0  0  0  0
   -0.3822   13.7196   23.5445 C   0  0  0  0  0  0  0  0  0  0  0  0
   -1.1059   12.3812   23.6263 C   0  0  0  0  0  0  0  0  0  0  0  0
   -1.1132   14.7715   24.3725 C   0  0  0  0  0  0  0  0  0  0  0  0
    0.2348   19.1689   18.9034 C   0  0  0  0  0  0  0  0  0  0  0  0
    1.3854   19.8238   18.3786 O   0  0  0  0  0  0  0  0  0  0  0  0
 23 24  1  0  0  0
 24  1  1  0  0  0
  1  2  1  0  0  0
  2  3  2  0  0  0
  3 11  1  0  0  0
 11 12  2  0  0  0
 11 13  1  0  0  0
 13 14  1  0  0  0
 14 15  1  0  0  0
 15 16  1  0  0  0
 16 19  1  0  0  0
 19 20  1  0  0  0
 20 21  1  0  0  0
 20 22  1  0  0  0
 16 17  1  0  0  0
 17 18  1  0  0  0
  3  4  1  0  0  0
  4  5  2  0  0  0
  5  6  1  0  0  0
  6  7  2  0  0  0
  7  8  1  0  0  0
  8  9  2  0  0  0
  9 10  1  0  0  0
 10  1  2  0  0  0
 18 13  1  0  0  0
  9  4  1  0  0  0
M  END
> <minimizedAffinity>
-10.25886

$$$$
OCNT-2312787


 21 23  0  0  0  0  0  0  0  0999 V2000
    1.3355   18.1534   18.5655 C   0  0  0  0  0  0  0  0  0  0  0  0
    0.4945   18.7081   17.4155 C   0  0  0  0  0  0  0  0  0  0  0  0
    2.2728   19.1706   19.1234 C   0  0  0  0  0  0  0  0  0  0  0  0
    3.4933   18.9996   19.5797 N   0  0  0  0  0  0  0  0  0  0  0  0
    3.8459   20.2759   19.9536 C   0  0  0  0  0  0  0  0  0  0  0  0
    2.8972   21.1988   19.7435 N   0  0  0  0  0  0  0  0  0  0  0  0
    1.8478   20.4657   19.1912 O   0  0  0  0  0  0  0  0  0  0  0  0
    5.2424   20.6021   20.5804 C   0  0  0  0  0  0  0  0  0  0  0  0
    6.0031   21.6928   20.2158 C   0  0  0  0  0  0  0  0  0  0  0  0
    7.2308   21.7543   20.9392 C   0  0  0  0  0  0  0  0  0  0  0  0
    7.3578   20.7077   21.8265 C   0  0  0  0  0  0  0  0  0  0  0  0
    6.0031   19.6616   21.7824 S   0  0  0  0  0  0  0  0  0  0  0  0
    0.5032   17.4692   19.6654 C   0  0  0  0  0  0  0  0  0  0  0  0
   -0.4551   14.3900   19.0872 C   0  0  0  0  0  0  0  0  0  0  0  0
    0.6462   14.8652   19.9626 C   0  0  0  0  0  0  0  0  0  0  0  0
    1.3733   13.9711   20.6380 N   0  0  0  0  0  0  0  0  0  0  0  0
    2.2668   14.7087   21.3136 N   0  0  0  0  0  0  0  0  0  0  0  0
    3.2225   14.0457   22.1703 C   0  0  0  0  0  0  0  0  0  0  0  0
    2.1584   16.0542   21.0742 C   0  0  0  0  0  0  0  0  0  0  0  0
    3.0836   17.0479   21.6791 C   0  0  0  0  0  0  0  0  0  0  0  0
    1.0729   16.2004   20.2225 C   0  0  0  0  0  0  0  0  0  0  0  0
 14 15  1  0  0  0
 15 16  2  0  0  0
 16 17  1  0  0  0
 17 18  1  0  0  0
 17 19  1  0  0  0
 19 20  1  0  0  0
 19 21  2  0  0  0
 21 13  1  0  0  0
 13  1  1  0  0  0
  1  2  1  0  0  0
  1  3  1  0  0  0
  3  4  2  0  0  0
  4  5  1  0  0  0
  5  8  1  0  0  0
  8  9  2  0  0  0
  9 10  1  0  0  0
 10 11  2  0  0  0
 11 12  1  0  0  0
  5  6  2  0  0  0
  6  7  1  0  0  0
 21 15  1  0  0  0
  7  3  1  0  0  0
 12  8  1  0  0  0
M  END
> <minimizedAffinity>
-8.35497

$$$$
OCNT-2312795


 25 27  0  0  0  0  0  0  0  0999 V2000
   -0.2262   18.6609   19.0741 O   0  0  0  0  0  0  0  0  0  0  0  0
    0.8312   18.0499   19.1607 C   0  0  0  0  0  0  0  0  0  0  0  0
    1.0571   16.7445   18.8060 N   0  0  0  0  0  0  0  0  0  0  0  0
    2.0111   16.4744   18.6037 H   0  0  0  0  0  0  0  0  0  0  0  0
    0.1786   15.7689   18.3241 C   0  0  0  0  0  0  0  0  0  0  0  0
   -0.2860   16.1406   17.1028 N   0  0  0  0  0  0  0  0  0  0  0  0
   -1.1894   15.3470   16.4921 C   0  0  0  0  0  0  0  0  0  0  0  0
   -1.6563   14.1710   17.0331 C   0  0  0  0  0  0  0  0  0  0  0  0
   -1.1412   13.7792   18.2615 C   0  0  0  0  0  0  0  0  0  0  0  0
   -0.1783   14.5609   18.9299 C   0  0  0  0  0  0  0  0  0  0  0  0
    0.4032   14.0491   20.2179 C   0  0  0  0  0  0  0  0  0  0  0  0
    0.8039   15.1218   21.0776 O   0  0  0  0  0  0  0  0  0  0  0  0
    1.1707   14.6976   21.8720 H   0  0  0  0  0  0  0  0  0  0  0  0
    2.0403   18.7874   19.6318 C   0  0  0  0  0  0  0  0  0  0  0  0
    2.2795   20.1185   19.2870 C   0  0  0  0  0  0  0  0  0  0  0  0
    3.4328   20.7681   19.7516 C   0  0  0  0  0  0  0  0  0  0  0  0
    4.3834   20.1219   20.5594 C   0  0  0  0  0  0  0  0  0  0  0  0
    4.1232   18.7783   20.8742 C   0  0  0  0  0  0  0  0  0  0  0  0
    2.9755   18.1150   20.4184 C   0  0  0  0  0  0  0  0  0  0  0  0
    5.5161   20.7717   21.0123 N   0  0  0  0  0  0  0  0  0  0  0  0
    6.8107   20.6670   20.3186 C   0  0  0  0  0  0  0  0  0  0  0  0
    7.6658   21.9135   20.6049 C   0  0  0  0  0  0  0  0  0  0  0  0
    7.9390   22.1299   21.9962 O   0  0  0  0  0  0  0  0  0  0  0  0
    6.9181   21.6139   22.8611 C   0  0  0  0  0  0  0  0  0  0  0  0
    5.5138   21.5946   22.2332 C   0  0  0  0  0  0  0  0  0  0  0  0
  1  2  2  0  0  0
  2  3  1  0  0  0
  3  5  1  0  0  0
  5  6  1  0  0  0
  6  7  2  0  0  0
  7  8  1  0  0  0
  8  9  2  0  0  0
  9 10  1  0  0  0
 10 11  1  0  0  0
 11 12  1  0  0  0
  2 14  1  0  0  0
 14 15  1  0  0  0
 15 16  2  0  0  0
 16 17  1  0  0  0
 17 20  1  0  0  0
 20 21  1  0  0  0
 21 22  1  0  0  0
 22 23  1  0  0  0
 23 24  1  0  0  0
 24 25  1  0  0  0
 17 18  2  0  0  0
 18 19  1  0  0  0
 10  5  2  0  0  0
 19 14  2  0  0  0
 25 20  1  0  0  0
  3  4  1  0  0  0
 12 13  1  0  0  0
M  END
> <minimizedAffinity>
-2.83009

$$$$
OCNT-2312801


 23 26  0  0  0  0  0  0  0  0999 V2000
    3.8400   16.4609   21.6620 C   0  0  0  0  0  0  0  0  0  0  0  0
    4.7087   15.5974   21.7409 O   0  0  0  0  0  0  0  0  0  0  0  0
    2.5007   16.2441   21.9195 N   0  0  0  0  0  0  0  0  0  0  0  0
    1.9020   17.0569   21.7973 H   0  0  0  0  0  0  0  0  0  0  0  0
    3.5914   20.6202   19.1954 C   0  0  0  0  0  0  0  0  0  0  0  0
    4.0291   19.6877   20.2055 N   0  0  0  0  0  0  0  0  0  0  0  0
    3.5027   18.4451   20.2341 N   0  0  0  0  0  0  0  0  0  0  0  0
    4.1259   17.8509   21.2763 C   0  0  0  0  0  0  0  0  0  0  0  0
    5.0431   18.7367   21.8984 C   0  0  0  0  0  0  0  0  0  0  0  0
    4.9423   19.9101   21.1941 C   0  0  0  0  0  0  0  0  0  0  0  0
    5.7385   21.2086   21.4679 C   0  0  0  0  0  0  0  0  0  0  0  0
    7.0195   21.4552   20.7145 C   0  0  0  0  0  0  0  0  0  0  0  0
    7.0647   21.1136   22.1750 C   0  0  0  0  0  0  0  0  0  0  0  0
    1.9665   14.9862   22.3215 C   0  0  0  0  0  0  0  0  0  0  0  0
    1.7473   13.8935   21.3114 C   0  0  0  0  0  0  0  0  0  0  0  0
    0.5599   14.5862   21.9295 C   0  0  0  0  0  0  0  0  0  0  0  0
   -0.3490   13.9011   22.9344 C   0  0  0  0  0  0  0  0  0  0  0  0
   -0.7351   14.5863   24.1047 C   0  0  0  0  0  0  0  0  0  0  0  0
   -1.5733   14.0072   25.0649 C   0  0  0  0  0  0  0  0  0  0  0  0
   -2.0488   12.7150   24.8772 C   0  0  0  0  0  0  0  0  0  0  0  0
   -1.6763   12.0182   23.7364 C   0  0  0  0  0  0  0  0  0  0  0  0
   -2.1280   10.7702   23.5494 F   0  0  0  0  0  0  0  0  0  0  0  0
   -0.8423   12.5935   22.7791 C   0  0  0  0  0  0  0  0  0  0  0  0
  5  6  1  0  0  0
  6  7  1  0  0  0
  7  8  2  0  0  0
  8  1  1  0  0  0
  1  2  2  0  0  0
  1  3  1  0  0  0
  3 14  1  0  0  0
 14 15  1  0  0  0
 15 16  1  0  0  0
 16 17  1  0  0  0
 17 18  2  0  0  0
 18 19  1  0  0  0
 19 20  2  0  0  0
 20 21  1  0  0  0
 21 22  1  0  0  0
 21 23  2  0  0  0
  8  9  1  0  0  0
  9 10  2  0  0  0
 10 11  1  0  0  0
 11 12  1  0  0  0
 12 13  1  0  0  0
 10  6  1  0  0  0
 13 11  1  0  0  0
 16 14  1  0  0  0
 23 17  1  0  0  0
  3  4  1  0  0  0
M  END
> <minimizedAffinity>
-7.72103

$$$$
OCNT-2312817


 23 25  0  0  0  0  0  0  0  0999 V2000
    3.4403   19.4669   19.8330 N   0  0  0  0  0  0  0  0  0  0  0  0
    2.8891   18.2008   19.8190 N   0  0  0  0  0  0  0  0  0  0  0  0
    1.6177   18.0916   19.5911 C   0  0  0  0  0  0  0  0  0  0  0  0
    0.7183   19.2415   19.3509 C   0  0  0  0  0  0  0  0  0  0  0  0
    1.2675   20.4574   19.3904 C   0  0  0  0  0  0  0  0  0  0  0  0
    2.7101   20.6332   19.6510 C   0  0  0  0  0  0  0  0  0  0  0  0
    3.1679   21.7726   19.6805 O   0  0  0  0  0  0  0  0  0  0  0  0
    1.0084   16.7440   19.5459 C   0  0  0  0  0  0  0  0  0  0  0  0
    0.0800   16.3941   18.5663 C   0  0  0  0  0  0  0  0  0  0  0  0
   -0.2845   17.2709   17.6191 F   0  0  0  0  0  0  0  0  0  0  0  0
   -0.4980   15.1236   18.5441 C   0  0  0  0  0  0  0  0  0  0  0  0
   -0.1540   14.1863   19.5152 C   0  0  0  0  0  0  0  0  0  0  0  0
    0.7675   14.5264   20.5056 C   0  0  0  0  0  0  0  0  0  0  0  0
    1.3424   15.7977   20.5175 C   0  0  0  0  0  0  0  0  0  0  0  0
    2.2555   16.0677   21.4624 F   0  0  0  0  0  0  0  0  0  0  0  0
    4.8786   19.5359   20.0762 C   0  0  0  0  0  0  0  0  0  0  0  0
    5.2841   19.6127   21.5419 C   0  0  0  0  0  0  0  0  0  0  0  0
    4.6801   18.6878   22.6009 C   0  0  0  0  0  0  0  0  0  0  0  0
    6.0817   18.4489   22.1323 C   0  0  0  0  0  0  0  0  0  0  0  0
    5.6969   20.9844   21.9717 C   0  0  0  0  0  0  0  0  0  0  0  0
    4.8902   21.8039   22.3844 O   0  0  0  0  0  0  0  0  0  0  0  0
    7.4439   21.7187   20.6064 C   0  0  0  0  0  0  0  0  0  0  0  0
    7.0418   21.1649   21.8587 O   0  0  0  0  0  0  0  0  0  0  0  0
 22 23  1  0  0  0
 23 20  1  0  0  0
 20 21  2  0  0  0
 20 17  1  0  0  0
 17 16  1  0  0  0
 16  1  1  0  0  0
  1  2  1  0  0  0
  2  3  2  0  0  0
  3  8  1  0  0  0
  8  9  2  0  0  0
  9 10  1  0  0  0
  9 11  1  0  0  0
 11 12  2  0  0  0
 12 13  1  0  0  0
 13 14  2  0  0  0
 14 15  1  0  0  0
  3  4  1  0  0  0
  4  5  2  0  0  0
  5  6  1  0  0  0
  6  7  2  0  0  0
 17 18  1  0  0  0
 18 19  1  0  0  0
 19 17  1  0  0  0
  6  1  1  0  0  0
 14  8  1  0  0  0
M  END
> <minimizedAffinity>
-10.14750

$$$$
OCNT-2312826


 23 26  0  0  0  0  0  0  0  0999 V2000
    1.4688   16.7004   20.5450 C   0  0  0  0  0  0  0  0  0  0  0  0
    1.8153   15.2340   20.8218 C   0  0  0  0  0  0  0  0  0  0  0  0
    2.7802   15.1348   21.9985 C   0  0  0  0  0  0  0  0  0  0  0  0
    4.0386   15.9732   21.7726 C   0  0  0  0  0  0  0  0  0  0  0  0
    3.6783   17.3609   21.4359 N   0  0  0  0  0  0  0  0  0  0  0  0
    2.7495   17.5184   20.3151 C   0  0  0  0  0  0  0  0  0  0  0  0
    4.7527   18.2512   21.5932 C   0  0  0  0  0  0  0  0  0  0  0  0
    5.7935   17.7881   22.3427 N   0  0  0  0  0  0  0  0  0  0  0  0
    6.8484   18.5697   22.6031 C   0  0  0  0  0  0  0  0  0  0  0  0
    7.0437   19.8187   22.1955 N   0  0  0  0  0  0  0  0  0  0  0  0
    6.0260   20.2713   21.4479 C   0  0  0  0  0  0  0  0  0  0  0  0
    4.8671   19.5837   21.0967 C   0  0  0  0  0  0  0  0  0  0  0  0
    4.0566   20.4334   20.2551 C   0  0  0  0  0  0  0  0  0  0  0  0
    4.5986   21.6824   20.0437 C   0  0  0  0  0  0  0  0  0  0  0  0
    6.0981   21.8593   20.8293 S   0  0  0  0  0  0  0  0  0  0  0  0
   -0.5930   17.3362   17.7005 C   0  0  0  0  0  0  0  0  0  0  0  0
   -0.8864   16.0432   17.9080 N   0  0  0  0  0  0  0  0  0  0  0  0
   -0.1242   15.6960   19.0170 O   0  0  0  0  0  0  0  0  0  0  0  0
    0.5602   16.8163   19.3752 C   0  0  0  0  0  0  0  0  0  0  0  0
    0.3044   17.8483   18.6058 N   0  0  0  0  0  0  0  0  0  0  0  0
   -2.4705   18.5587   16.8081 C   0  0  0  0  0  0  0  0  0  0  0  0
   -1.0790   18.1408   16.7198 N   0  0  0  0  0  0  0  0  0  0  0  0
   -0.1672   19.0686   16.0679 C   0  0  0  0  0  0  0  0  0  0  0  0
 21 22  1  0  0  0
 22 23  1  0  0  0
 22 16  1  0  0  0
 16 17  2  0  0  0
 17 18  1  0  0  0
 18 19  1  0  0  0
 19  1  1  0  0  0
  1  2  1  0  0  0
  2  3  1  0  0  0
  3  4  1  0  0  0
  4  5  1  0  0  0
  5  7  1  0  0  0
  7  8  1  0  0  0
  8  9  2  0  0  0
  9 10  1  0  0  0
 10 11  2  0  0  0
 11 12  1  0  0  0
 12 13  1  0  0  0
 13 14  2  0  0  0
 14 15  1  0  0  0
  5  6  1  0  0  0
 19 20  2  0  0  0
 20 16  1  0  0  0
  6  1  1  0  0  0
 12  7  2  0  0  0
 15 11  1  0  0  0
M  END
> <minimizedAffinity>
-8.35259

$$$$
OCNT-2312831


 24 26  0  0  0  0  0  0  0  0999 V2000
    1.9877   16.8816   20.2073 C   0  0  0  0  0  0  0  0  0  0  0  0
    2.6159   18.1080   19.9650 C   0  0  0  0  0  0  0  0  0  0  0  0
    3.7097   18.5163   20.7342 C   0  0  0  0  0  0  0  0  0  0  0  0
    4.2071   17.6973   21.7549 C   0  0  0  0  0  0  0  0  0  0  0  0
    3.5685   16.4755   22.0024 C   0  0  0  0  0  0  0  0  0  0  0  0
    2.4698   16.0713   21.2343 C   0  0  0  0  0  0  0  0  0  0  0  0
    0.1869   15.3552   19.3369 C   0  0  0  0  0  0  0  0  0  0  0  0
    0.4130   14.3596   20.0215 O   0  0  0  0  0  0  0  0  0  0  0  0
    0.8907   16.5518   19.3889 N   0  0  0  0  0  0  0  0  0  0  0  0
    0.6124   17.2600   18.7066 H   0  0  0  0  0  0  0  0  0  0  0  0
   -0.9470   14.2522   17.3453 C   0  0  0  0  0  0  0  0  0  0  0  0
   -0.9876   15.3987   18.3550 C   0  0  0  0  0  0  0  0  0  0  0  0
   -1.0661   16.7157   17.7324 N   0  0  0  0  0  0  0  0  0  0  0  0
   -2.0090   17.6878   17.9100 C   0  0  0  0  0  0  0  0  0  0  0  0
   -1.6756   18.7086   17.0511 C   0  0  0  0  0  0  0  0  0  0  0  0
   -0.5277   18.2534   16.3807 C   0  0  0  0  0  0  0  0  0  0  0  0
   -0.1606   17.0304   16.7742 N   0  0  0  0  0  0  0  0  0  0  0  0
    5.3798   18.1335   22.6060 C   0  0  0  0  0  0  0  0  0  0  0  0
    5.9389   19.4943   22.2599 C   0  0  0  0  0  0  0  0  0  0  0  0
    5.1454   20.6432   22.3475 C   0  0  0  0  0  0  0  0  0  0  0  0
    5.7044   21.8671   22.0135 C   0  0  0  0  0  0  0  0  0  0  0  0
    6.9798   22.0228   21.5994 N   0  0  0  0  0  0  0  0  0  0  0  0
    7.7274   20.9028   21.5137 C   0  0  0  0  0  0  0  0  0  0  0  0
    7.2598   19.6347   21.8255 C   0  0  0  0  0  0  0  0  0  0  0  0
 11 12  1  0  0  0
 12  7  1  0  0  0
  7  8  2  0  0  0
  7  9  1  0  0  0
  9  1  1  0  0  0
  1  2  1  0  0  0
  2  3  2  0  0  0
  3  4  1  0  0  0
  4 18  1  0  0  0
 18 19  1  0  0  0
 19 20  2  0  0  0
 20 21  1  0  0  0
 21 22  2  0  0  0
 22 23  1  0  0  0
 23 24  2  0  0  0
  4  5  2  0  0  0
  5  6  1  0  0  0
 12 13  1  0  0  0
 13 14  1  0  0  0
 14 15  2  0  0  0
 15 16  1  0  0  0
 16 17  2  0  0  0
  6  1  2  0  0  0
 17 13  1  0  0  0
 24 19  1  0  0  0
  9 10  1  0  0  0
M  END
> <minimizedAffinity>
-7.68228

$$$$
OCNT-2312847


 21 24  0  0  0  0  0  0  0  0999 V2000
    4.3727   18.1336   23.3830 O   0  0  0  0  0  0  0  0  0  0  0  0
    4.5712   17.7923   21.9909 S   0  0  0  0  0  0  0  0  0  0  0  0
    5.8281   17.2416   21.5298 O   0  0  0  0  0  0  0  0  0  0  0  0
    3.3104   16.6322   21.5161 C   0  0  0  0  0  0  0  0  0  0  0  0
    3.3116   15.3528   22.1113 C   0  0  0  0  0  0  0  0  0  0  0  0
    2.3351   14.4182   21.7588 C   0  0  0  0  0  0  0  0  0  0  0  0
    1.3916   14.7997   20.8273 C   0  0  0  0  0  0  0  0  0  0  0  0
    0.3736   14.0238   20.3679 O   0  0  0  0  0  0  0  0  0  0  0  0
   -0.2727   14.9337   19.4533 C   0  0  0  0  0  0  0  0  0  0  0  0
    0.3789   16.2181   19.3665 O   0  0  0  0  0  0  0  0  0  0  0  0
    1.3944   16.0531   20.2558 C   0  0  0  0  0  0  0  0  0  0  0  0
    2.3404   17.0010   20.5783 C   0  0  0  0  0  0  0  0  0  0  0  0
    4.1882   19.1466   21.0505 N   0  0  0  0  0  0  0  0  0  0  0  0
    4.7707   20.4495   21.4256 C   0  0  0  0  0  0  0  0  0  0  0  0
    6.2707   20.4749   21.3743 C   0  0  0  0  0  0  0  0  0  0  0  0
    7.0197   21.5080   22.1813 C   0  0  0  0  0  0  0  0  0  0  0  0
    7.0185   21.5895   20.6821 C   0  0  0  0  0  0  0  0  0  0  0  0
    4.0188   18.9117   19.6056 C   0  0  0  0  0  0  0  0  0  0  0  0
    3.0973   19.9551   19.0474 C   0  0  0  0  0  0  0  0  0  0  0  0
    1.8360   19.5625   18.3189 C   0  0  0  0  0  0  0  0  0  0  0  0
    1.7491   20.2057   19.6755 C   0  0  0  0  0  0  0  0  0  0  0  0
  1  2  2  0  0  0
  2  3  2  0  0  0
  2  4  1  0  0  0
  4  5  1  0  0  0
  5  6  2  0  0  0
  6  7  1  0  0  0
  7  8  1  0  0  0
  8  9  1  0  0  0
  9 10  1  0  0  0
 10 11  1  0  0  0
 11 12  1  0  0  0
  2 13  1  0  0  0
 13 14  1  0  0  0
 14 15  1  0  0  0
 15 16  1  0  0  0
 16 17  1  0  0  0
 13 18  1  0  0  0
 18 19  1  0  0  0
 19 20  1  0  0  0
 20 21  1  0  0  0
 12  4  2  0  0  0
 17 15  1  0  0  0
 21 19  1  0  0  0
 11  7  2  0  0  0
M  END
> <minimizedAffinity>
-8.54983

$$$$
OCNT-2312866


 22 24  0  0  0  0  0  0  0  0999 V2000
    1.1597   16.7823   19.8266 C   0  0  0  0  0  0  0  0  0  0  0  0
    1.3051   15.6504   20.6346 C   0  0  0  0  0  0  0  0  0  0  0  0
    2.4277   15.5123   21.4537 C   0  0  0  0  0  0  0  0  0  0  0  0
    3.4121   16.4993   21.4736 C   0  0  0  0  0  0  0  0  0  0  0  0
    3.2887   17.6412   20.6772 C   0  0  0  0  0  0  0  0  0  0  0  0
    2.1682   17.7707   19.8494 C   0  0  0  0  0  0  0  0  0  0  0  0
   -0.5904   14.6072   18.1393 C   0  0  0  0  0  0  0  0  0  0  0  0
   -0.6982   16.0792   18.1806 C   0  0  0  0  0  0  0  0  0  0  0  0
   -1.5908   16.7709   17.4977 N   0  0  0  0  0  0  0  0  0  0  0  0
   -1.4452   18.0715   17.8723 N   0  0  0  0  0  0  0  0  0  0  0  0
   -0.4841   18.2003   18.7690 N   0  0  0  0  0  0  0  0  0  0  0  0
    0.0423   16.9635   18.9604 N   0  0  0  0  0  0  0  0  0  0  0  0
    4.3330   18.5858   20.7494 N   0  0  0  0  0  0  0  0  0  0  0  0
    4.9155   19.1172   21.8865 C   0  0  0  0  0  0  0  0  0  0  0  0
    4.6922   18.7541   23.0333 O   0  0  0  0  0  0  0  0  0  0  0  0
    4.7864   18.8147   19.8742 H   0  0  0  0  0  0  0  0  0  0  0  0
    5.9039   20.1282   21.5910 C   0  0  0  0  0  0  0  0  0  0  0  0
    7.1977   20.2242   22.0708 C   0  0  0  0  0  0  0  0  0  0  0  0
    7.7389   21.3636   21.4548 C   0  0  0  0  0  0  0  0  0  0  0  0
    6.8564   21.9736   20.6621 N   0  0  0  0  0  0  0  0  0  0  0  0
    5.7291   21.2537   20.8238 N   0  0  0  0  0  0  0  0  0  0  0  0
    4.5023   21.7449   20.2381 C   0  0  0  0  0  0  0  0  0  0  0  0
  7  8  1  0  0  0
  8  9  2  0  0  0
  9 10  1  0  0  0
 10 11  2  0  0  0
 11 12  1  0  0  0
 12  1  1  0  0  0
  1  2  2  0  0  0
  2  3  1  0  0  0
  3  4  2  0  0  0
  4  5  1  0  0  0
  5 13  1  0  0  0
 13 14  1  0  0  0
 14 15  2  0  0  0
 14 17  1  0  0  0
 17 18  2  0  0  0
 18 19  1  0  0  0
 19 20  2  0  0  0
 20 21  1  0  0  0
 21 22  1  0  0  0
  5  6  2  0  0  0
 12  8  1  0  0  0
  6  1  1  0  0  0
 21 17  1  0  0  0
 13 16  1  0  0  0
M  END
> <minimizedAffinity>
-9.33944

$$$$
OCNT-2312890


 22 23  0  0  0  0  0  0  0  0999 V2000
    1.8920   15.9941   20.8042 C   0  0  0  0  0  0  0  0  0  0  0  0
    2.9429   17.0485   20.9926 C   0  0  0  0  0  0  0  0  0  0  0  0
    3.9773   16.9020   21.9186 C   0  0  0  0  0  0  0  0  0  0  0  0
    4.9459   17.8993   22.0480 C   0  0  0  0  0  0  0  0  0  0  0  0
    4.8577   19.0260   21.2346 C   0  0  0  0  0  0  0  0  0  0  0  0
    3.8652   19.1840   20.3213 N   0  0  0  0  0  0  0  0  0  0  0  0
    2.9408   18.2016   20.2179 C   0  0  0  0  0  0  0  0  0  0  0  0
    5.8223   20.0678   21.3308 N   0  0  0  0  0  0  0  0  0  0  0  0
    6.8619   20.1202   22.2361 C   0  0  0  0  0  0  0  0  0  0  0  0
    7.5347   21.2885   21.9755 C   0  0  0  0  0  0  0  0  0  0  0  0
    6.9494   21.9635   20.9400 N   0  0  0  0  0  0  0  0  0  0  0  0
    5.9321   21.2125   20.5746 C   0  0  0  0  0  0  0  0  0  0  0  0
   -0.0101   15.4899   19.3175 C   0  0  0  0  0  0  0  0  0  0  0  0
   -0.1543   14.3718   19.7981 O   0  0  0  0  0  0  0  0  0  0  0  0
    0.9977   16.3417   19.7238 N   0  0  0  0  0  0  0  0  0  0  0  0
    0.9863   17.3018   19.4082 H   0  0  0  0  0  0  0  0  0  0  0  0
   -0.8796   15.2097   17.0156 C   0  0  0  0  0  0  0  0  0  0  0  0
   -0.9410   16.1050   18.2620 C   0  0  0  0  0  0  0  0  0  0  0  0
   -0.6943   17.6261   17.9717 C   0  0  0  0  0  0  0  0  0  0  0  0
   -0.5279   18.4031   19.2963 C   0  0  0  0  0  0  0  0  0  0  0  0
    0.5325   17.8872   17.0780 C   0  0  0  0  0  0  0  0  0  0  0  0
   -1.9295   18.2225   17.2553 C   0  0  0  0  0  0  0  0  0  0  0  0
 17 18  1  0  0  0
 18 13  1  0  0  0
 13 14  2  0  0  0
 13 15  1  0  0  0
 15  1  1  0  0  0
  1  2  1  0  0  0
  2  3  2  0  0  0
  3  4  1  0  0  0
  4  5  2  0  0  0
  5  8  1  0  0  0
  8  9  1  0  0  0
  9 10  2  0  0  0
 10 11  1  0  0  0
 11 12  2  0  0  0
  5  6  1  0  0  0
  6  7  2  0  0  0
 18 19  1  0  0  0
 19 20  1  0  0  0
 19 21  1  0  0  0
 19 22  1  0  0  0
  7  2  1  0  0  0
 12  8  1  0  0  0
 15 16  1  0  0  0
M  END
> <minimizedAffinity>
-8.78113

$$$$
OCNT-2312897


 27 29  0  0  0  0  0  0  0  0999 V2000
    1.4615   15.3338   21.3282 N   0  0  0  0  0  0  0  0  0  0  0  0
    2.8097   15.6959   21.3380 C   0  0  0  0  0  0  0  0  0  0  0  0
    3.7211   14.9257   21.6334 O   0  0  0  0  0  0  0  0  0  0  0  0
    3.1959   17.0811   21.0096 C   0  0  0  0  0  0  0  0  0  0  0  0
    2.4999   17.7619   20.0068 C   0  0  0  0  0  0  0  0  0  0  0  0
    2.8811   19.0606   19.6577 C   0  0  0  0  0  0  0  0  0  0  0  0
    3.9626   19.6782   20.2920 C   0  0  0  0  0  0  0  0  0  0  0  0
    4.3135   20.9814   19.9132 N   0  0  0  0  0  0  0  0  0  0  0  0
    5.3279   21.5229   20.4987 C   0  0  0  0  0  0  0  0  0  0  0  0
    6.0882   20.9226   21.4719 N   0  0  0  0  0  0  0  0  0  0  0  0
    7.2004   21.6271   22.0752 C   0  0  0  0  0  0  0  0  0  0  0  0
    5.7982   19.6453   21.9282 C   0  0  0  0  0  0  0  0  0  0  0  0
    6.4155   19.0778   22.8255 O   0  0  0  0  0  0  0  0  0  0  0  0
    4.6600   18.9719   21.2761 C   0  0  0  0  0  0  0  0  0  0  0  0
    4.2954   17.6708   21.6362 C   0  0  0  0  0  0  0  0  0  0  0  0
    1.1277   13.9933   21.8161 C   0  0  0  0  0  0  0  0  0  0  0  0
   -0.1276   14.3777   23.9651 C   0  0  0  0  0  0  0  0  0  0  0  0
   -0.2308   13.9229   22.5180 C   0  0  0  0  0  0  0  0  0  0  0  0
    0.3703   16.1756   20.8211 C   0  0  0  0  0  0  0  0  0  0  0  0
   -0.1036   15.7926   19.4445 C   0  0  0  0  0  0  0  0  0  0  0  0
   -0.3075   14.4488   19.0971 C   0  0  0  0  0  0  0  0  0  0  0  0
   -0.7326   14.1193   17.8121 C   0  0  0  0  0  0  0  0  0  0  0  0
   -0.9202   12.8325   17.4927 F   0  0  0  0  0  0  0  0  0  0  0  0
   -0.9643   15.1022   16.8560 C   0  0  0  0  0  0  0  0  0  0  0  0
   -0.7688   16.4405   17.1911 C   0  0  0  0  0  0  0  0  0  0  0  0
   -0.3427   16.7740   18.4758 C   0  0  0  0  0  0  0  0  0  0  0  0
   -0.1707   18.0677   18.7782 F   0  0  0  0  0  0  0  0  0  0  0  0
 17 18  1  0  0  0
 18 16  1  0  0  0
 16  1  1  0  0  0
  1 19  1  0  0  0
 19 20  1  0  0  0
 20 21  1  0  0  0
 21 22  2  0  0  0
 22 23  1  0  0  0
 22 24  1  0  0  0
 24 25  2  0  0  0
 25 26  1  0  0  0
 26 27  1  0  0  0
  1  2  1  0  0  0
  2  3  2  0  0  0
  2  4  1  0  0  0
  4  5  1  0  0  0
  5  6  2  0  0  0
  6  7  1  0  0  0
  7  8  1  0  0  0
  8  9  2  0  0  0
  9 10  1  0  0  0
 10 11  1  0  0  0
 10 12  1  0  0  0
 12 13  2  0  0  0
 12 14  1  0  0  0
 14 15  1  0  0  0
 26 20  2  0  0  0
 15  4  2  0  0  0
 14  7  2  0  0  0
M  END
> <minimizedAffinity>
-9.44262

$$$$
OCNT-2312906


 28 30  0  0  0  0  0  0  0  0999 V2000
    3.0151   16.0509   21.7171 N   0  0  0  0  0  0  0  0  0  0  0  0
    2.6718   14.7365   21.9803 C   0  0  0  0  0  0  0  0  0  0  0  0
    3.5108   13.8571   22.1442 O   0  0  0  0  0  0  0  0  0  0  0  0
    2.3132   16.7678   21.8557 H   0  0  0  0  0  0  0  0  0  0  0  0
    4.4071   16.4769   21.7398 C   0  0  0  0  0  0  0  0  0  0  0  0
    4.6427   17.8512   22.4017 C   0  0  0  0  0  0  0  0  0  0  0  0
    5.9373   17.8638   23.0117 O   0  0  0  0  0  0  0  0  0  0  0  0
    6.0889   18.7779   23.3103 H   0  0  0  0  0  0  0  0  0  0  0  0
    5.3722   21.1509   20.6110 C   0  0  0  0  0  0  0  0  0  0  0  0
    4.3899   21.1543   19.6214 C   0  0  0  0  0  0  0  0  0  0  0  0
    3.4932   20.0877   19.5205 C   0  0  0  0  0  0  0  0  0  0  0  0
    3.5727   19.0149   20.4081 C   0  0  0  0  0  0  0  0  0  0  0  0
    4.5555   18.9926   21.4069 C   0  0  0  0  0  0  0  0  0  0  0  0
    5.4491   20.0713   21.4966 C   0  0  0  0  0  0  0  0  0  0  0  0
    7.6585   21.8008   20.5515 C   0  0  0  0  0  0  0  0  0  0  0  0
    6.3024   22.1299   20.8250 O   0  0  0  0  0  0  0  0  0  0  0  0
    1.1555   14.5064   22.0418 C   0  0  0  0  0  0  0  0  0  0  0  0
    0.5714   13.8828   20.9112 O   0  0  0  0  0  0  0  0  0  0  0  0
    0.1974   14.6817   19.8665 C   0  0  0  0  0  0  0  0  0  0  0  0
   -0.4107   14.2579   18.6875 C   0  0  0  0  0  0  0  0  0  0  0  0
   -0.7448   15.1875   17.6962 C   0  0  0  0  0  0  0  0  0  0  0  0
   -0.4818   16.5547   17.8703 C   0  0  0  0  0  0  0  0  0  0  0  0
   -0.8109   17.4983   16.8834 C   0  0  0  0  0  0  0  0  0  0  0  0
   -0.5461   18.8550   17.0776 C   0  0  0  0  0  0  0  0  0  0  0  0
    0.0489   19.2850   18.2600 C   0  0  0  0  0  0  0  0  0  0  0  0
    0.3807   18.3593   19.2505 C   0  0  0  0  0  0  0  0  0  0  0  0
    0.1221   16.9906   19.0697 C   0  0  0  0  0  0  0  0  0  0  0  0
    0.4488   16.0442   20.0551 C   0  0  0  0  0  0  0  0  0  0  0  0
 15 16  1  0  0  0
 16  9  1  0  0  0
  9 10  1  0  0  0
 10 11  2  0  0  0
 11 12  1  0  0  0
 12 13  2  0  0  0
 13  6  1  0  0  0
  6  7  1  0  0  0
  6  5  1  0  0  0
  5  1  1  0  0  0
  1  2  1  0  0  0
  2  3  2  0  0  0
  2 17  1  0  0  0
 17 18  1  0  0  0
 18 19  1  0  0  0
 19 20  1  0  0  0
 20 21  2  0  0  0
 21 22  1  0  0  0
 22 23  2  0  0  0
 23 24  1  0  0  0
 24 25  2  0  0  0
 25 26  1  0  0  0
 26 27  2  0  0  0
 27 28  1  0  0  0
 13 14  1  0  0  0
 14  9  2  0  0  0
 28 19  2  0  0  0
 27 22  1  0  0  0
  7  8  1  0  0  0
  1  4  1  0  0  0
M  END
> <minimizedAffinity>
-11.25197

$$$$
OCNT-2312921


 25 27  0  0  0  0  0  0  0  0999 V2000
    3.7563   18.6599   19.2391 C   0  0  0  0  0  0  0  0  0  0  0  0
    2.9439   19.8656   19.3730 N   0  0  0  0  0  0  0  0  0  0  0  0
    1.5510   19.8631   19.3287 C   0  0  0  0  0  0  0  0  0  0  0  0
    0.8497   20.7398   19.8287 O   0  0  0  0  0  0  0  0  0  0  0  0
    0.8607   18.7583   18.6240 C   0  0  0  0  0  0  0  0  0  0  0  0
    0.3235   18.9516   17.3476 C   0  0  0  0  0  0  0  0  0  0  0  0
   -0.3424   17.9038   16.7138 C   0  0  0  0  0  0  0  0  0  0  0  0
   -0.4854   16.6725   17.3590 C   0  0  0  0  0  0  0  0  0  0  0  0
    0.0244   16.4772   18.6527 C   0  0  0  0  0  0  0  0  0  0  0  0
    0.6965   17.5353   19.2830 C   0  0  0  0  0  0  0  0  0  0  0  0
   -0.1297   15.1494   19.3494 C   0  0  0  0  0  0  0  0  0  0  0  0
    0.7386   15.0577   20.5089 N   0  0  0  0  0  0  0  0  0  0  0  0
    0.5445   14.2717   21.6114 C   0  0  0  0  0  0  0  0  0  0  0  0
    1.6446   14.4985   22.4053 C   0  0  0  0  0  0  0  0  0  0  0  0
    2.5004   15.3886   21.8092 N   0  0  0  0  0  0  0  0  0  0  0  0
    1.9302   15.7064   20.6687 C   0  0  0  0  0  0  0  0  0  0  0  0
    3.6085   21.0709   19.8678 C   0  0  0  0  0  0  0  0  0  0  0  0
    4.8722   20.7819   20.6260 C   0  0  0  0  0  0  0  0  0  0  0  0
    4.9415   19.7203   21.5292 C   0  0  0  0  0  0  0  0  0  0  0  0
    3.8698   18.9411   21.7320 F   0  0  0  0  0  0  0  0  0  0  0  0
    6.1090   19.4432   22.2397 C   0  0  0  0  0  0  0  0  0  0  0  0
    7.2394   20.2371   22.0536 C   0  0  0  0  0  0  0  0  0  0  0  0
    7.1898   21.3034   21.1574 C   0  0  0  0  0  0  0  0  0  0  0  0
    6.0138   21.5654   20.4554 C   0  0  0  0  0  0  0  0  0  0  0  0
    5.9922   22.6028   19.6067 F   0  0  0  0  0  0  0  0  0  0  0  0
  1  2  1  0  0  0
  2 17  1  0  0  0
 17 18  1  0  0  0
 18 19  2  0  0  0
 19 20  1  0  0  0
 19 21  1  0  0  0
 21 22  2  0  0  0
 22 23  1  0  0  0
 23 24  2  0  0  0
 24 25  1  0  0  0
  2  3  1  0  0  0
  3  4  2  0  0  0
  3  5  1  0  0  0
  5  6  1  0  0  0
  6  7  2  0  0  0
  7  8  1  0  0  0
  8  9  2  0  0  0
  9 11  1  0  0  0
 11 12  1  0  0  0
 12 13  1  0  0  0
 13 14  2  0  0  0
 14 15  1  0  0  0
 15 16  2  0  0  0
  9 10  1  0  0  0
 24 18  1  0  0  0
 10  5  2  0  0  0
 16 12  1  0  0  0
M  END
> <minimizedAffinity>
-10.65243

$$$$
OCNT-2312925


 23 26  0  0  0  0  0  0  0  0999 V2000
    2.4557   15.7640   22.0312 C   0  0  0  0  0  0  0  0  0  0  0  0
    3.8480   16.3799   22.0539 C   0  0  0  0  0  0  0  0  0  0  0  0
    3.6276   17.6625   21.2498 C   0  0  0  0  0  0  0  0  0  0  0  0
    2.7410   17.2303   20.1397 N   0  0  0  0  0  0  0  0  0  0  0  0
    2.0072   16.0241   20.5803 C   0  0  0  0  0  0  0  0  0  0  0  0
    1.9044   18.2146   19.5841 C   0  0  0  0  0  0  0  0  0  0  0  0
    2.2295   19.5072   19.7704 N   0  0  0  0  0  0  0  0  0  0  0  0
    1.3938   20.4202   19.2657 C   0  0  0  0  0  0  0  0  0  0  0  0
    0.2654   20.1783   18.5924 N   0  0  0  0  0  0  0  0  0  0  0  0
   -0.0408   18.8948   18.3869 C   0  0  0  0  0  0  0  0  0  0  0  0
   -1.1941   18.5962   17.6703 C   0  0  0  0  0  0  0  0  0  0  0  0
   -1.5752   17.2804   17.3941 C   0  0  0  0  0  0  0  0  0  0  0  0
   -0.7852   16.2293   17.8362 C   0  0  0  0  0  0  0  0  0  0  0  0
    0.3730   16.5047   18.5592 C   0  0  0  0  0  0  0  0  0  0  0  0
    0.7537   17.8392   18.8569 C   0  0  0  0  0  0  0  0  0  0  0  0
    1.6796   13.5706   21.5869 C   0  0  0  0  0  0  0  0  0  0  0  0
    2.5356   14.3845   22.3772 O   0  0  0  0  0  0  0  0  0  0  0  0
    4.9327   18.3432   20.7690 C   0  0  0  0  0  0  0  0  0  0  0  0
    5.2351   19.6826   21.3052 N   0  0  0  0  0  0  0  0  0  0  0  0
    5.3438   20.6788   20.2372 C   0  0  0  0  0  0  0  0  0  0  0  0
    5.9730   21.8614   20.9511 C   0  0  0  0  0  0  0  0  0  0  0  0
    6.8457   21.2392   22.0332 C   0  0  0  0  0  0  0  0  0  0  0  0
    6.5154   19.7507   22.0137 C   0  0  0  0  0  0  0  0  0  0  0  0
 16 17  1  0  0  0
 17  1  1  0  0  0
  1  2  1  0  0  0
  2  3  1  0  0  0
  3 18  1  0  0  0
 18 19  1  0  0  0
 19 20  1  0  0  0
 20 21  1  0  0  0
 21 22  1  0  0  0
 22 23  1  0  0  0
  3  4  1  0  0  0
  4  6  1  0  0  0
  6  7  1  0  0  0
  7  8  2  0  0  0
  8  9  1  0  0  0
  9 10  2  0  0  0
 10 11  1  0  0  0
 11 12  2  0  0  0
 12 13  1  0  0  0
 13 14  2  0  0  0
 14 15  1  0  0  0
  4  5  1  0  0  0
  5  1  1  0  0  0
 23 19  1  0  0  0
 15  6  2  0  0  0
 15 10  1  0  0  0
M  END
> <minimizedAffinity>
-8.72913

$$$$
OCNT-2312932


 23 25  0  0  0  0  0  0  0  0999 V2000
    2.6984   17.4577   20.5733 N   0  0  0  0  0  0  0  0  0  0  0  0
    3.9420   16.9833   21.1606 C   0  0  0  0  0  0  0  0  0  0  0  0
    4.6610   18.1379   21.8665 C   0  0  0  0  0  0  0  0  0  0  0  0
    4.5074   19.4901   21.1442 C   0  0  0  0  0  0  0  0  0  0  0  0
    4.0944   19.2961   19.6810 C   0  0  0  0  0  0  0  0  0  0  0  0
    2.7662   18.5404   19.5931 C   0  0  0  0  0  0  0  0  0  0  0  0
    0.4415   13.4865   21.9844 C   0  0  0  0  0  0  0  0  0  0  0  0
    0.5910   14.5887   20.9802 C   0  0  0  0  0  0  0  0  0  0  0  0
   -0.2099   14.6288   19.8634 C   0  0  0  0  0  0  0  0  0  0  0  0
    0.0022   15.6825   18.9961 C   0  0  0  0  0  0  0  0  0  0  0  0
    0.9568   16.6191   19.2287 N   0  0  0  0  0  0  0  0  0  0  0  0
    1.7025   16.5187   20.3375 C   0  0  0  0  0  0  0  0  0  0  0  0
    1.5352   15.5193   21.2195 N   0  0  0  0  0  0  0  0  0  0  0  0
   -0.8344   15.7766   17.7337 C   0  0  0  0  0  0  0  0  0  0  0  0
   -0.1516   16.3523   16.6989 F   0  0  0  0  0  0  0  0  0  0  0  0
   -1.2744   14.5774   17.2588 F   0  0  0  0  0  0  0  0  0  0  0  0
   -1.9488   16.5460   17.9026 F   0  0  0  0  0  0  0  0  0  0  0  0
    5.7474   20.3510   21.2941 C   0  0  0  0  0  0  0  0  0  0  0  0
    6.1673   21.1655   20.2372 C   0  0  0  0  0  0  0  0  0  0  0  0
    7.3015   21.9471   20.4020 C   0  0  0  0  0  0  0  0  0  0  0  0
    8.0369   21.9769   21.5326 N   0  0  0  0  0  0  0  0  0  0  0  0
    7.6152   21.1909   22.5447 C   0  0  0  0  0  0  0  0  0  0  0  0
    6.4952   20.3750   22.4763 C   0  0  0  0  0  0  0  0  0  0  0  0
  7  8  1  0  0  0
  8  9  2  0  0  0
  9 10  1  0  0  0
 10 14  1  0  0  0
 14 15  1  0  0  0
 14 16  1  0  0  0
 14 17  1  0  0  0
 10 11  2  0  0  0
 11 12  1  0  0  0
 12  1  1  0  0  0
  1  2  1  0  0  0
  2  3  1  0  0  0
  3  4  1  0  0  0
  4 18  1  0  0  0
 18 19  2  0  0  0
 19 20  1  0  0  0
 20 21  2  0  0  0
 21 22  1  0  0  0
 22 23  2  0  0  0
  4  5  1  0  0  0
  5  6  1  0  0  0
 12 13  2  0  0  0
 13  8  1  0  0  0
  6  1  1  0  0  0
 23 18  1  0  0  0
M  END
> <minimizedAffinity>
-8.20265

$$$$
OCNT-2312951


 27 29  0  0  0  0  0  0  0  0999 V2000
    2.4950   16.6459   21.3738 N   0  0  0  0  0  0  0  0  0  0  0  0
    3.5799   17.3058   20.8247 C   0  0  0  0  0  0  0  0  0  0  0  0
    4.7158   16.8409   20.8295 O   0  0  0  0  0  0  0  0  0  0  0  0
    1.5961   16.9555   21.0402 H   0  0  0  0  0  0  0  0  0  0  0  0
    3.2368   18.6015   20.2356 C   0  0  0  0  0  0  0  0  0  0  0  0
    3.9723   19.7816   20.3536 C   0  0  0  0  0  0  0  0  0  0  0  0
    3.2792   20.7670   19.6742 N   0  0  0  0  0  0  0  0  0  0  0  0
    3.6595   22.1632   19.5858 C   0  0  0  0  0  0  0  0  0  0  0  0
    2.1514   20.2412   19.0985 C   0  0  0  0  0  0  0  0  0  0  0  0
    2.0979   18.9073   19.4235 C   0  0  0  0  0  0  0  0  0  0  0  0
    5.2588   20.0271   21.0095 C   0  0  0  0  0  0  0  0  0  0  0  0
    6.1640   20.9439   20.4587 C   0  0  0  0  0  0  0  0  0  0  0  0
    7.3854   21.1962   21.0870 C   0  0  0  0  0  0  0  0  0  0  0  0
    7.7132   20.5292   22.2672 C   0  0  0  0  0  0  0  0  0  0  0  0
    6.8211   19.6099   22.8180 C   0  0  0  0  0  0  0  0  0  0  0  0
    5.5976   19.3596   22.1914 C   0  0  0  0  0  0  0  0  0  0  0  0
    2.6288   15.2643   21.8094 C   0  0  0  0  0  0  0  0  0  0  0  0
    1.3583   14.4015   21.6064 C   0  0  0  0  0  0  0  0  0  0  0  0
    1.7214   12.9164   21.3870 C   0  0  0  0  0  0  0  0  0  0  0  0
    0.4724   14.4775   22.8744 C   0  0  0  0  0  0  0  0  0  0  0  0
   -1.3818   16.7164   17.0401 C   0  0  0  0  0  0  0  0  0  0  0  0
   -0.6679   16.0763   18.1862 C   0  0  0  0  0  0  0  0  0  0  0  0
   -0.5334   14.6937   18.2826 C   0  0  0  0  0  0  0  0  0  0  0  0
    0.1137   14.1346   19.3844 C   0  0  0  0  0  0  0  0  0  0  0  0
    0.6054   14.9690   20.3914 C   0  0  0  0  0  0  0  0  0  0  0  0
    0.4782   16.3167   20.3057 N   0  0  0  0  0  0  0  0  0  0  0  0
   -0.1522   16.8350   19.2261 C   0  0  0  0  0  0  0  0  0  0  0  0
 21 22  1  0  0  0
 22 23  2  0  0  0
 23 24  1  0  0  0
 24 25  2  0  0  0
 25 18  1  0  0  0
 18 19  1  0  0  0
 18 20  1  0  0  0
 18 17  1  0  0  0
 17  1  1  0  0  0
  1  2  1  0  0  0
  2  3  2  0  0  0
  2  5  1  0  0  0
  5  6  2  0  0  0
  6 11  1  0  0  0
 11 12  2  0  0  0
 12 13  1  0  0  0
 13 14  2  0  0  0
 14 15  1  0  0  0
 15 16  2  0  0  0
  6  7  1  0  0  0
  7  8  1  0  0  0
  7  9  1  0  0  0
  9 10  2  0  0  0
 25 26  1  0  0  0
 26 27  2  0  0  0
 27 22  1  0  0  0
 10  5  1  0  0  0
 16 11  1  0  0  0
  1  4  1  0  0  0
M  END
> <minimizedAffinity>
-8.49009

$$$$
OCNT-2312952


 27 30  0  0  0  0  0  0  0  0999 V2000
    1.6291   18.2798   18.1386 C   0  0  0  0  0  0  0  0  0  0  0  0
    2.2629   19.4040   18.8931 C   0  0  0  0  0  0  0  0  0  0  0  0
    1.7691   20.5792   19.2266 N   0  0  0  0  0  0  0  0  0  0  0  0
    2.7662   21.2335   19.9209 N   0  0  0  0  0  0  0  0  0  0  0  0
    3.8070   20.4213   19.9486 C   0  0  0  0  0  0  0  0  0  0  0  0
    3.5448   19.2226   19.3393 O   0  0  0  0  0  0  0  0  0  0  0  0
    5.1091   20.6056   20.5856 C   0  0  0  0  0  0  0  0  0  0  0  0
    5.8934   21.6938   20.1541 C   0  0  0  0  0  0  0  0  0  0  0  0
    7.1456   21.9507   20.7109 C   0  0  0  0  0  0  0  0  0  0  0  0
    7.6377   21.1172   21.7064 C   0  0  0  0  0  0  0  0  0  0  0  0
    6.8837   20.0245   22.1407 C   0  0  0  0  0  0  0  0  0  0  0  0
    5.6219   19.7544   21.5883 C   0  0  0  0  0  0  0  0  0  0  0  0
    4.8510   18.6802   21.9561 O   0  0  0  0  0  0  0  0  0  0  0  0
    5.4701   17.4019   22.0133 C   0  0  0  0  0  0  0  0  0  0  0  0
    0.2723   17.8789   18.5757 N   0  0  0  0  0  0  0  0  0  0  0  0
    0.1236   16.5096   18.8549 C   0  0  0  0  0  0  0  0  0  0  0  0
   -0.7521   15.7105   18.1022 C   0  0  0  0  0  0  0  0  0  0  0  0
   -0.8658   14.3408   18.3317 C   0  0  0  0  0  0  0  0  0  0  0  0
   -0.1049   13.7371   19.3264 C   0  0  0  0  0  0  0  0  0  0  0  0
    0.7654   14.4952   20.1185 C   0  0  0  0  0  0  0  0  0  0  0  0
    1.5133   13.8736   21.1336 C   0  0  0  0  0  0  0  0  0  0  0  0
    2.3655   14.6116   21.9524 C   0  0  0  0  0  0  0  0  0  0  0  0
    2.4741   15.9832   21.7723 C   0  0  0  0  0  0  0  0  0  0  0  0
    1.7388   16.6124   20.7651 C   0  0  0  0  0  0  0  0  0  0  0  0
    0.8818   15.8927   19.8999 C   0  0  0  0  0  0  0  0  0  0  0  0
   -1.0384   18.7115   16.5953 C   0  0  0  0  0  0  0  0  0  0  0  0
   -0.8884   18.6463   18.1091 C   0  0  0  0  0  0  0  0  0  0  0  0
 26 27  1  0  0  0
 27 15  1  0  0  0
 15  1  1  0  0  0
  1  2  1  0  0  0
  2  3  2  0  0  0
  3  4  1  0  0  0
  4  5  2  0  0  0
  5  7  1  0  0  0
  7  8  2  0  0  0
  8  9  1  0  0  0
  9 10  2  0  0  0
 10 11  1  0  0  0
 11 12  2  0  0  0
 12 13  1  0  0  0
 13 14  1  0  0  0
  5  6  1  0  0  0
 15 16  1  0  0  0
 16 17  2  0  0  0
 17 18  1  0  0  0
 18 19  2  0  0  0
 19 20  1  0  0  0
 20 21  2  0  0  0
 21 22  1  0  0  0
 22 23  2  0  0  0
 23 24  1  0  0  0
 24 25  2  0  0  0
  6  2  1  0  0  0
 25 16  1  0  0  0
 12  7  1  0  0  0
 25 20  1  0  0  0
M  END
> <minimizedAffinity>
-9.98218

$$$$
OCNT-2312959


 22 24  0  0  0  0  0  0  0  0999 V2000
    0.9995   18.5896   18.7465 C   0  0  0  0  0  0  0  0  0  0  0  0
    0.8955   20.1075   18.8686 C   0  0  0  0  0  0  0  0  0  0  0  0
    2.3363   20.5357   19.1293 C   0  0  0  0  0  0  0  0  0  0  0  0
    2.9092   19.4324   19.8998 N   0  0  0  0  0  0  0  0  0  0  0  0
    2.0297   18.2622   19.8530 C   0  0  0  0  0  0  0  0  0  0  0  0
    4.1157   19.4784   20.5531 C   0  0  0  0  0  0  0  0  0  0  0  0
    4.4885   18.4940   21.4861 C   0  0  0  0  0  0  0  0  0  0  0  0
    5.7163   18.5326   22.1576 C   0  0  0  0  0  0  0  0  0  0  0  0
    6.6026   19.5678   21.9053 C   0  0  0  0  0  0  0  0  0  0  0  0
    7.7749   19.5910   22.5561 F   0  0  0  0  0  0  0  0  0  0  0  0
    6.2712   20.5589   20.9922 C   0  0  0  0  0  0  0  0  0  0  0  0
    7.3624   21.8516   20.6656 Cl  0  0  0  0  0  0  0  0  0  0  0  0
    5.0410   20.5122   20.3260 C   0  0  0  0  0  0  0  0  0  0  0  0
   -0.2853   17.9209   18.9869 N   0  0  0  0  0  0  0  0  0  0  0  0
   -0.7603   18.2922   19.8059 H   0  0  0  0  0  0  0  0  0  0  0  0
    0.9252   13.9901   21.5040 C   0  0  0  0  0  0  0  0  0  0  0  0
    0.3599   14.6136   20.2668 C   0  0  0  0  0  0  0  0  0  0  0  0
   -0.0980   13.7914   19.3080 N   0  0  0  0  0  0  0  0  0  0  0  0
   -0.6116   14.3872   18.2208 C   0  0  0  0  0  0  0  0  0  0  0  0
   -0.6972   15.7513   18.0746 C   0  0  0  0  0  0  0  0  0  0  0  0
   -0.2237   16.5200   19.1197 C   0  0  0  0  0  0  0  0  0  0  0  0
    0.3091   15.9585   20.2157 N   0  0  0  0  0  0  0  0  0  0  0  0
 16 17  1  0  0  0
 17 18  2  0  0  0
 18 19  1  0  0  0
 19 20  2  0  0  0
 20 21  1  0  0  0
 21 14  1  0  0  0
 14  1  1  0  0  0
  1  2  1  0  0  0
  2  3  1  0  0  0
  3  4  1  0  0  0
  4  6  1  0  0  0
  6  7  1  0  0  0
  7  8  2  0  0  0
  8  9  1  0  0  0
  9 10  1  0  0  0
  9 11  2  0  0  0
 11 12  1  0  0  0
 11 13  1  0  0  0
  4  5  1  0  0  0
 21 22  2  0  0  0
 22 17  1  0  0  0
  5  1  1  0  0  0
 13  6  2  0  0  0
 14 15  1  0  0  0
M  END
> <minimizedAffinity>
-9.69057

$$$$
OCNT-2312961


 25 27  0  0  0  0  0  0  0  0999 V2000
    1.7069   16.3362   20.5209 C   0  0  0  0  0  0  0  0  0  0  0  0
    1.5532   15.1680   20.8634 O   0  0  0  0  0  0  0  0  0  0  0  0
    2.5741   17.1958   21.1490 N   0  0  0  0  0  0  0  0  0  0  0  0
    2.7291   18.1234   20.7518 H   0  0  0  0  0  0  0  0  0  0  0  0
   -0.1226   16.1771   18.7423 C   0  0  0  0  0  0  0  0  0  0  0  0
   -0.8155   16.7936   17.6904 C   0  0  0  0  0  0  0  0  0  0  0  0
   -0.5091   18.1034   17.3117 C   0  0  0  0  0  0  0  0  0  0  0  0
    0.4856   18.8010   17.9828 C   0  0  0  0  0  0  0  0  0  0  0  0
    0.7687   20.0577   17.6177 F   0  0  0  0  0  0  0  0  0  0  0  0
    1.1906   18.2126   19.0212 C   0  0  0  0  0  0  0  0  0  0  0  0
    0.9023   16.8922   19.3973 C   0  0  0  0  0  0  0  0  0  0  0  0
   -0.6516   13.9036   18.2168 C   0  0  0  0  0  0  0  0  0  0  0  0
   -0.3891   14.9093   19.1871 O   0  0  0  0  0  0  0  0  0  0  0  0
    3.5286   16.7442   22.1518 C   0  0  0  0  0  0  0  0  0  0  0  0
    4.7301   16.0635   21.5081 C   0  0  0  0  0  0  0  0  0  0  0  0
    5.5802   17.2409   21.0288 C   0  0  0  0  0  0  0  0  0  0  0  0
    5.3113   18.3397   21.9852 N   0  0  0  0  0  0  0  0  0  0  0  0
    4.2068   17.9155   22.8759 C   0  0  0  0  0  0  0  0  0  0  0  0
    5.0996   19.5590   21.3083 C   0  0  0  0  0  0  0  0  0  0  0  0
    4.0636   19.6426   20.4327 N   0  0  0  0  0  0  0  0  0  0  0  0
    3.8531   20.8121   19.7878 C   0  0  0  0  0  0  0  0  0  0  0  0
    4.6468   21.9319   19.9444 C   0  0  0  0  0  0  0  0  0  0  0  0
    5.7185   21.8505   20.8234 C   0  0  0  0  0  0  0  0  0  0  0  0
    5.9526   20.6603   21.5152 C   0  0  0  0  0  0  0  0  0  0  0  0
    7.2812   20.6218   22.6211 Cl  0  0  0  0  0  0  0  0  0  0  0  0
 12 13  1  0  0  0
 13  5  1  0  0  0
  5  6  1  0  0  0
  6  7  2  0  0  0
  7  8  1  0  0  0
  8  9  1  0  0  0
  8 10  2  0  0  0
 10 11  1  0  0  0
 11  1  1  0  0  0
  1  2  2  0  0  0
  1  3  1  0  0  0
  3 14  1  0  0  0
 14 15  1  0  0  0
 15 16  1  0  0  0
 16 17  1  0  0  0
 17 19  1  0  0  0
 19 20  1  0  0  0
 20 21  2  0  0  0
 21 22  1  0  0  0
 22 23  2  0  0  0
 23 24  1  0  0  0
 24 25  1  0  0  0
 17 18  1  0  0  0
 11  5  2  0  0  0
 18 14  1  0  0  0
 24 19  2  0  0  0
  3  4  1  0  0  0
M  END
> <minimizedAffinity>
-9.38979

$$$$
OCNT-2312969


 25 27  0  0  0  0  0  0  0  0999 V2000
    3.8900   17.4303   21.2340 C   0  0  0  0  0  0  0  0  0  0  0  0
    4.2192   16.2043   21.8154 C   0  0  0  0  0  0  0  0  0  0  0  0
    3.3322   15.1286   21.7360 C   0  0  0  0  0  0  0  0  0  0  0  0
    2.1216   15.2785   21.0657 C   0  0  0  0  0  0  0  0  0  0  0  0
    1.7751   16.4524   20.5054 N   0  0  0  0  0  0  0  0  0  0  0  0
    2.6530   17.4836   20.5953 C   0  0  0  0  0  0  0  0  0  0  0  0
    6.5330   20.8330   21.4225 C   0  0  0  0  0  0  0  0  0  0  0  0
    6.8508   19.6462   22.0863 C   0  0  0  0  0  0  0  0  0  0  0  0
    5.9890   18.5423   22.0236 C   0  0  0  0  0  0  0  0  0  0  0  0
    4.7885   18.5912   21.2979 C   0  0  0  0  0  0  0  0  0  0  0  0
    4.4769   19.7863   20.6329 C   0  0  0  0  0  0  0  0  0  0  0  0
    5.3356   20.8908   20.6945 C   0  0  0  0  0  0  0  0  0  0  0  0
    4.8661   22.3233   19.8441 Cl  0  0  0  0  0  0  0  0  0  0  0  0
    8.3232   22.0687   20.4342 C   0  0  0  0  0  0  0  0  0  0  0  0
    7.3120   21.9598   21.4268 O   0  0  0  0  0  0  0  0  0  0  0  0
    1.2429   14.1863   21.0361 N   0  0  0  0  0  0  0  0  0  0  0  0
    1.5946   13.4818   20.3960 H   0  0  0  0  0  0  0  0  0  0  0  0
   -0.1412   14.5320   20.7156 C   0  0  0  0  0  0  0  0  0  0  0  0
   -0.4231   14.6315   19.2475 C   0  0  0  0  0  0  0  0  0  0  0  0
   -0.5497   13.6012   18.3370 C   0  0  0  0  0  0  0  0  0  0  0  0
   -0.8103   14.1793   17.1333 N   0  0  0  0  0  0  0  0  0  0  0  0
   -0.8616   15.5182   17.1839 N   0  0  0  0  0  0  0  0  0  0  0  0
   -0.6348   15.8058   18.4717 C   0  0  0  0  0  0  0  0  0  0  0  0
   -0.6243   17.2188   18.9272 C   0  0  0  0  0  0  0  0  0  0  0  0
   -0.9638   13.7260   16.2389 H   0  0  0  0  0  0  0  0  0  0  0  0
 14 15  1  0  0  0
 15  7  1  0  0  0
  7  8  1  0  0  0
  8  9  2  0  0  0
  9 10  1  0  0  0
 10  1  1  0  0  0
  1  2  2  0  0  0
  2  3  1  0  0  0
  3  4  2  0  0  0
  4 16  1  0  0  0
 16 18  1  0  0  0
 18 19  1  0  0  0
 19 20  2  0  0  0
 20 21  1  0  0  0
 21 22  1  0  0  0
 22 23  2  0  0  0
 23 24  1  0  0  0
  4  5  1  0  0  0
  5  6  2  0  0  0
 10 11  2  0  0  0
 11 12  1  0  0  0
 12 13  1  0  0  0
 12  7  2  0  0  0
  6  1  1  0  0  0
 23 19  1  0  0  0
 16 17  1  0  0  0
 21 25  1  0  0  0
M  END
> <minimizedAffinity>
-8.04922

$$$$
OCNT-2312971


 23 25  0  0  0  0  0  0  0  0999 V2000
    3.0103   17.5013   20.5003 C   0  0  0  0  0  0  0  0  0  0  0  0
    4.0425   18.6030   20.6851 C   0  0  0  0  0  0  0  0  0  0  0  0
    4.7717   18.6756   21.8838 C   0  0  0  0  0  0  0  0  0  0  0  0
    5.7345   19.6697   22.0774 C   0  0  0  0  0  0  0  0  0  0  0  0
    5.9828   20.5980   21.0708 C   0  0  0  0  0  0  0  0  0  0  0  0
    7.1660   21.8238   21.3088 Cl  0  0  0  0  0  0  0  0  0  0  0  0
    5.2813   20.5368   19.8699 C   0  0  0  0  0  0  0  0  0  0  0  0
    4.3195   19.5414   19.6754 C   0  0  0  0  0  0  0  0  0  0  0  0
    3.1365   16.4718   21.6301 C   0  0  0  0  0  0  0  0  0  0  0  0
    2.1684   15.2554   21.5553 C   0  0  0  0  0  0  0  0  0  0  0  0
    3.3161   14.3992   22.1269 C   0  0  0  0  0  0  0  0  0  0  0  0
    4.2888   15.4309   21.5214 C   0  0  0  0  0  0  0  0  0  0  0  0
    1.6435   18.0478   20.4825 N   0  0  0  0  0  0  0  0  0  0  0  0
    1.3509   18.5627   21.3144 H   0  0  0  0  0  0  0  0  0  0  0  0
    1.0936   20.2017   19.3811 O   0  0  0  0  0  0  0  0  0  0  0  0
    1.0779   18.7868   19.0816 S   0  0  0  0  0  0  0  0  0  0  0  0
    1.8084   18.2386   17.9591 O   0  0  0  0  0  0  0  0  0  0  0  0
   -0.6208   18.2092   19.0325 C   0  0  0  0  0  0  0  0  0  0  0  0
   -0.6291   16.7888   18.6289 C   0  0  0  0  0  0  0  0  0  0  0  0
   -0.8690   16.1125   17.4550 C   0  0  0  0  0  0  0  0  0  0  0  0
   -0.6752   14.7621   17.7927 C   0  0  0  0  0  0  0  0  0  0  0  0
   -0.3224   14.6125   19.0708 N   0  0  0  0  0  0  0  0  0  0  0  0
   -0.2972   15.8915   19.5983 O   0  0  0  0  0  0  0  0  0  0  0  0
 15 16  2  0  0  0
 16 17  2  0  0  0
 16 18  1  0  0  0
 18 19  1  0  0  0
 19 20  2  0  0  0
 20 21  1  0  0  0
 21 22  2  0  0  0
 22 23  1  0  0  0
 16 13  1  0  0  0
 13  1  1  0  0  0
  1  2  1  0  0  0
  2  3  1  0  0  0
  3  4  2  0  0  0
  4  5  1  0  0  0
  5  6  1  0  0  0
  5  7  2  0  0  0
  7  8  1  0  0  0
  1  9  1  0  0  0
  9 10  1  0  0  0
 10 11  1  0  0  0
 11 12  1  0  0  0
 23 19  1  0  0  0
  8  2  2  0  0  0
 12  9  1  0  0  0
 13 14  1  0  0  0
M  END
> <minimizedAffinity>
-8.73346

$$$$
OCNT-2312973


 23 24  0  0  0  0  0  0  0  0999 V2000
    3.2906   17.2319   21.2879 C   0  0  0  0  0  0  0  0  0  0  0  0
    3.6279   16.2171   21.8822 O   0  0  0  0  0  0  0  0  0  0  0  0
    3.9393   18.4479   21.3732 N   0  0  0  0  0  0  0  0  0  0  0  0
    3.8317   19.0464   20.5637 H   0  0  0  0  0  0  0  0  0  0  0  0
   -0.0637   17.1150   18.6762 C   0  0  0  0  0  0  0  0  0  0  0  0
    0.5810   18.2885   18.8804 N   0  0  0  0  0  0  0  0  0  0  0  0
    1.6438   18.2987   19.7233 C   0  0  0  0  0  0  0  0  0  0  0  0
    2.1276   17.1751   20.3743 C   0  0  0  0  0  0  0  0  0  0  0  0
    1.4601   15.9698   20.1766 C   0  0  0  0  0  0  0  0  0  0  0  0
    0.3638   15.9357   19.3160 C   0  0  0  0  0  0  0  0  0  0  0  0
   -0.4526   14.4295   19.0824 Cl  0  0  0  0  0  0  0  0  0  0  0  0
   -1.1316   17.0650   17.7620 N   0  0  0  0  0  0  0  0  0  0  0  0
   -2.0073   17.0660   18.2806 H   0  0  0  0  0  0  0  0  0  0  0  0
   -2.4063   18.8539   16.6626 C   0  0  0  0  0  0  0  0  0  0  0  0
   -1.1225   18.0390   16.6769 C   0  0  0  0  0  0  0  0  0  0  0  0
    5.2440   18.6159   22.0582 C   0  0  0  0  0  0  0  0  0  0  0  0
    4.9686   18.6131   23.5778 C   0  0  0  0  0  0  0  0  0  0  0  0
    6.1999   17.4438   21.7646 C   0  0  0  0  0  0  0  0  0  0  0  0
    5.8436   19.9537   21.6702 C   0  0  0  0  0  0  0  0  0  0  0  0
    7.0550   20.3522   22.1017 N   0  0  0  0  0  0  0  0  0  0  0  0
    7.2119   21.6036   21.5020 O   0  0  0  0  0  0  0  0  0  0  0  0
    6.0994   21.8106   20.7536 C   0  0  0  0  0  0  0  0  0  0  0  0
    5.2382   20.8258   20.7938 N   0  0  0  0  0  0  0  0  0  0  0  0
 14 15  1  0  0  0
 15 12  1  0  0  0
 12  5  1  0  0  0
  5  6  1  0  0  0
  6  7  2  0  0  0
  7  8  1  0  0  0
  8  1  1  0  0  0
  1  2  2  0  0  0
  1  3  1  0  0  0
  3 16  1  0  0  0
 16 17  1  0  0  0
 16 18  1  0  0  0
 16 19  1  0  0  0
 19 20  2  0  0  0
 20 21  1  0  0  0
 21 22  1  0  0  0
 22 23  2  0  0  0
  8  9  2  0  0  0
  9 10  1  0  0  0
 10 11  1  0  0  0
 10  5  2  0  0  0
 23 19  1  0  0  0
 12 13  1  0  0  0
  3  4  1  0  0  0
M  END
> <minimizedAffinity>
-8.41511

$$$$
OCNT-2312985


 23 24  0  0  0  0  0  0  0  0999 V2000
    2.2454   17.1968   21.0450 N   0  0  0  0  0  0  0  0  0  0  0  0
    1.8954   16.8566   21.9456 H   0  0  0  0  0  0  0  0  0  0  0  0
    0.7394   15.5538   20.0787 C   0  0  0  0  0  0  0  0  0  0  0  0
   -0.1854   15.1719   19.1020 C   0  0  0  0  0  0  0  0  0  0  0  0
   -0.5223   16.0566   18.0764 C   0  0  0  0  0  0  0  0  0  0  0  0
    0.0588   17.3204   18.0340 C   0  0  0  0  0  0  0  0  0  0  0  0
   -0.3753   18.4145   16.7776 Cl  0  0  0  0  0  0  0  0  0  0  0  0
    0.9844   17.7108   19.0016 C   0  0  0  0  0  0  0  0  0  0  0  0
    1.3561   16.8284   20.0226 C   0  0  0  0  0  0  0  0  0  0  0  0
    1.1529   14.7580   21.1225 O   0  0  0  0  0  0  0  0  0  0  0  0
    0.1476   14.0435   21.8403 C   0  0  0  0  0  0  0  0  0  0  0  0
   -0.9646   14.1549   24.1006 C   0  0  0  0  0  0  0  0  0  0  0  0
    0.3230   14.3590   23.3227 C   0  0  0  0  0  0  0  0  0  0  0  0
    3.6950   16.9656   20.9099 C   0  0  0  0  0  0  0  0  0  0  0  0
    4.1428   15.8329   21.8428 C   0  0  0  0  0  0  0  0  0  0  0  0
    4.5100   18.1901   21.2231 C   0  0  0  0  0  0  0  0  0  0  0  0
    4.4345   19.4060   20.7220 N   0  0  0  0  0  0  0  0  0  0  0  0
    5.4218   20.0614   21.4136 C   0  0  0  0  0  0  0  0  0  0  0  0
    6.0715   19.3119   22.3156 N   0  0  0  0  0  0  0  0  0  0  0  0
    5.4671   18.0607   22.1881 O   0  0  0  0  0  0  0  0  0  0  0  0
    5.7312   21.5021   21.1739 C   0  0  0  0  0  0  0  0  0  0  0  0
    4.7591   22.1331   20.1761 C   0  0  0  0  0  0  0  0  0  0  0  0
    7.1775   21.7041   20.7196 C   0  0  0  0  0  0  0  0  0  0  0  0
 12 13  1  0  0  0
 13 11  1  0  0  0
 11 10  1  0  0  0
 10  3  1  0  0  0
  3  4  1  0  0  0
  4  5  2  0  0  0
  5  6  1  0  0  0
  6  7  1  0  0  0
  6  8  2  0  0  0
  8  9  1  0  0  0
  9  1  1  0  0  0
  1 14  1  0  0  0
 14 15  1  0  0  0
 14 16  1  0  0  0
 16 17  2  0  0  0
 17 18  1  0  0  0
 18 21  1  0  0  0
 21 22  1  0  0  0
 21 23  1  0  0  0
 18 19  2  0  0  0
 19 20  1  0  0  0
  9  3  2  0  0  0
 20 16  1  0  0  0
  1  2  1  0  0  0
M  END
> <minimizedAffinity>
-9.76769

$$$$
OCNT-2312987


 22 24  0  0  0  0  0  0  0  0999 V2000
    4.8766   15.7788   21.7625 O   0  0  0  0  0  0  0  0  0  0  0  0
    4.0102   16.7911   21.1975 S   0  0  0  0  0  0  0  0  0  0  0  0
    4.1926   17.2685   19.8415 O   0  0  0  0  0  0  0  0  0  0  0  0
    2.4293   16.2063   21.2842 N   0  0  0  0  0  0  0  0  0  0  0  0
    2.1052   15.1769   22.2956 C   0  0  0  0  0  0  0  0  0  0  0  0
    1.4312   14.0689   21.5040 C   0  0  0  0  0  0  0  0  0  0  0  0
    0.6795   14.8371   20.4352 C   0  0  0  0  0  0  0  0  0  0  0  0
    1.6729   15.9396   20.0293 C   0  0  0  0  0  0  0  0  0  0  0  0
    0.9390   17.1187   19.4447 C   0  0  0  0  0  0  0  0  0  0  0  0
    1.3828   18.4385   19.5721 C   0  0  0  0  0  0  0  0  0  0  0  0
    0.6399   19.4786   19.0202 C   0  0  0  0  0  0  0  0  0  0  0  0
   -0.5375   19.1681   18.3623 C   0  0  0  0  0  0  0  0  0  0  0  0
   -1.0106   17.9115   18.2255 N   0  0  0  0  0  0  0  0  0  0  0  0
   -0.2607   16.9224   18.7622 C   0  0  0  0  0  0  0  0  0  0  0  0
    3.9752   18.2102   22.3113 C   0  0  0  0  0  0  0  0  0  0  0  0
    4.9468   19.2537   21.8187 C   0  0  0  0  0  0  0  0  0  0  0  0
    6.2799   19.2508   22.2612 C   0  0  0  0  0  0  0  0  0  0  0  0
    7.1770   20.2178   21.8052 C   0  0  0  0  0  0  0  0  0  0  0  0
    6.7440   21.1890   20.9113 C   0  0  0  0  0  0  0  0  0  0  0  0
    7.6068   22.1153   20.4740 F   0  0  0  0  0  0  0  0  0  0  0  0
    5.4280   21.2148   20.4671 C   0  0  0  0  0  0  0  0  0  0  0  0
    4.5281   20.2493   20.9207 C   0  0  0  0  0  0  0  0  0  0  0  0
  1  2  2  0  0  0
  2  3  2  0  0  0
  2 15  1  0  0  0
 15 16  1  0  0  0
 16 17  1  0  0  0
 17 18  2  0  0  0
 18 19  1  0  0  0
 19 20  1  0  0  0
 19 21  2  0  0  0
 21 22  1  0  0  0
  2  4  1  0  0  0
  4  5  1  0  0  0
  5  6  1  0  0  0
  6  7  1  0  0  0
  7  8  1  0  0  0
  8  9  1  0  0  0
  9 10  1  0  0  0
 10 11  2  0  0  0
 11 12  1  0  0  0
 12 13  2  0  0  0
 13 14  1  0  0  0
 22 16  2  0  0  0
  8  4  1  0  0  0
 14  9  2  0  0  0
M  END
> <minimizedAffinity>
-9.35057

$$$$
OCNT-2312988


 22 24  0  0  0  0  0  0  0  0999 V2000
    3.1268   16.8056   21.3628 C   0  0  0  0  0  0  0  0  0  0  0  0
    3.0878   16.4815   22.5492 O   0  0  0  0  0  0  0  0  0  0  0  0
    4.2681   17.3790   20.7981 N   0  0  0  0  0  0  0  0  0  0  0  0
    5.4778   17.4381   21.6442 C   0  0  0  0  0  0  0  0  0  0  0  0
    5.5492   18.7456   22.4715 C   0  0  0  0  0  0  0  0  0  0  0  0
    5.2153   19.8721   21.5627 C   0  0  0  0  0  0  0  0  0  0  0  0
    4.5886   19.7355   20.3415 C   0  0  0  0  0  0  0  0  0  0  0  0
    4.1709   18.4252   19.7489 C   0  0  0  0  0  0  0  0  0  0  0  0
    4.4220   20.9574   19.7467 N   0  0  0  0  0  0  0  0  0  0  0  0
    4.9194   21.8246   20.6059 C   0  0  0  0  0  0  0  0  0  0  0  0
    5.4090   21.2100   21.7276 N   0  0  0  0  0  0  0  0  0  0  0  0
    6.0030   21.8657   22.8633 C   0  0  0  0  0  0  0  0  0  0  0  0
    1.2993   14.1414   21.2990 C   0  0  0  0  0  0  0  0  0  0  0  0
    1.2489   15.3749   20.4851 C   0  0  0  0  0  0  0  0  0  0  0  0
    1.9955   16.5401   20.4825 C   0  0  0  0  0  0  0  0  0  0  0  0
    1.4568   17.3249   19.4178 C   0  0  0  0  0  0  0  0  0  0  0  0
    0.4057   16.6137   18.8749 C   0  0  0  0  0  0  0  0  0  0  0  0
    0.2819   15.4227   19.5293 O   0  0  0  0  0  0  0  0  0  0  0  0
   -0.5734   16.8641   17.7568 C   0  0  0  0  0  0  0  0  0  0  0  0
   -0.9732   15.5263   17.1088 C   0  0  0  0  0  0  0  0  0  0  0  0
    0.0728   17.7734   16.6965 C   0  0  0  0  0  0  0  0  0  0  0  0
   -1.8469   17.5521   18.2822 C   0  0  0  0  0  0  0  0  0  0  0  0
 13 14  1  0  0  0
 14 15  2  0  0  0
 15  1  1  0  0  0
  1  2  2  0  0  0
  1  3  1  0  0  0
  3  4  1  0  0  0
  4  5  1  0  0  0
  5  6  1  0  0  0
  6  7  2  0  0  0
  7  8  1  0  0  0
  7  9  1  0  0  0
  9 10  2  0  0  0
 10 11  1  0  0  0
 11 12  1  0  0  0
 15 16  1  0  0  0
 16 17  2  0  0  0
 17 19  1  0  0  0
 19 20  1  0  0  0
 19 21  1  0  0  0
 19 22  1  0  0  0
 17 18  1  0  0  0
 18 14  1  0  0  0
  8  3  1  0  0  0
 11  6  1  0  0  0
M  END
> <minimizedAffinity>
-9.11659

$$$$
OCNT-2312994


 26 29  0  0  0  0  0  0  0  0999 V2000
    0.7757   18.7244   18.2007 N   0  0  0  0  0  0  0  0  0  0  0  0
    1.8309   17.8065   18.6753 C   0  0  0  0  0  0  0  0  0  0  0  0
    2.9796   18.5676   19.2733 C   0  0  0  0  0  0  0  0  0  0  0  0
    2.9767   19.8894   19.5254 C   0  0  0  0  0  0  0  0  0  0  0  0
    1.7481   20.7192   19.2468 C   0  0  0  0  0  0  0  0  0  0  0  0
    0.4990   19.8412   19.1326 C   0  0  0  0  0  0  0  0  0  0  0  0
    4.0726   20.5922   20.1168 C   0  0  0  0  0  0  0  0  0  0  0  0
    4.3278   21.9357   19.9114 C   0  0  0  0  0  0  0  0  0  0  0  0
    5.4592   22.2619   20.6139 N   0  0  0  0  0  0  0  0  0  0  0  0
    5.9309   21.1618   21.2733 C   0  0  0  0  0  0  0  0  0  0  0  0
    7.0280   21.1632   22.0529 N   0  0  0  0  0  0  0  0  0  0  0  0
    7.2786   19.9564   22.6084 C   0  0  0  0  0  0  0  0  0  0  0  0
    6.5184   18.8087   22.4291 C   0  0  0  0  0  0  0  0  0  0  0  0
    5.3914   18.8645   21.6074 C   0  0  0  0  0  0  0  0  0  0  0  0
    5.0837   20.0926   20.9939 C   0  0  0  0  0  0  0  0  0  0  0  0
    5.8996   23.1687   20.6601 H   0  0  0  0  0  0  0  0  0  0  0  0
   -0.5573   17.9979   17.4426 S   0  0  0  0  0  0  0  0  0  0  0  0
   -0.3000   17.9623   16.0179 O   0  0  0  0  0  0  0  0  0  0  0  0
   -1.7624   18.6063   17.9667 O   0  0  0  0  0  0  0  0  0  0  0  0
    0.5427   14.4315   21.1644 C   0  0  0  0  0  0  0  0  0  0  0  0
    0.0513   14.7292   19.7782 C   0  0  0  0  0  0  0  0  0  0  0  0
   -0.3905   13.6929   18.9442 C   0  0  0  0  0  0  0  0  0  0  0  0
   -0.8578   13.9643   17.6560 C   0  0  0  0  0  0  0  0  0  0  0  0
   -0.9092   15.2779   17.1938 C   0  0  0  0  0  0  0  0  0  0  0  0
   -0.5098   16.3187   18.0368 C   0  0  0  0  0  0  0  0  0  0  0  0
   -0.0151   16.0500   19.3181 C   0  0  0  0  0  0  0  0  0  0  0  0
 20 21  1  0  0  0
 21 22  1  0  0  0
 22 23  2  0  0  0
 23 24  1  0  0  0
 24 25  2  0  0  0
 25 17  1  0  0  0
 17 18  2  0  0  0
 17 19  2  0  0  0
 17  1  1  0  0  0
  1  2  1  0  0  0
  2  3  1  0  0  0
  3  4  2  0  0  0
  4  7  1  0  0  0
  7  8  2  0  0  0
  8  9  1  0  0  0
  9 10  1  0  0  0
 10 11  1  0  0  0
 11 12  2  0  0  0
 12 13  1  0  0  0
 13 14  2  0  0  0
 14 15  1  0  0  0
  4  5  1  0  0  0
  5  6  1  0  0  0
 25 26  1  0  0  0
 26 21  2  0  0  0
  6  1  1  0  0  0
 15  7  1  0  0  0
 15 10  2  0  0  0
  9 16  1  0  0  0
M  END
> <minimizedAffinity>
-9.79002

$$$$
OCNT-2312995


 22 25  0  0  0  0  0  0  0  0999 V2000
    1.2554   18.4413   18.7486 C   0  0  0  0  0  0  0  0  0  0  0  0
    2.2507   19.1982   19.6388 C   0  0  0  0  0  0  0  0  0  0  0  0
    2.8955   18.1396   20.3971 N   0  0  0  0  0  0  0  0  0  0  0  0
    2.1542   16.8893   20.3559 C   0  0  0  0  0  0  0  0  0  0  0  0
    0.8365   17.2648   19.6483 C   0  0  0  0  0  0  0  0  0  0  0  0
    0.1690   16.1205   18.9203 C   0  0  0  0  0  0  0  0  0  0  0  0
   -0.4405   16.2929   17.6681 C   0  0  0  0  0  0  0  0  0  0  0  0
   -1.0587   15.2204   17.0217 C   0  0  0  0  0  0  0  0  0  0  0  0
   -1.0770   13.9621   17.6177 C   0  0  0  0  0  0  0  0  0  0  0  0
   -0.4759   13.7747   18.8600 C   0  0  0  0  0  0  0  0  0  0  0  0
    0.1433   14.8460   19.5070 C   0  0  0  0  0  0  0  0  0  0  0  0
    3.9197   18.3655   21.2458 C   0  0  0  0  0  0  0  0  0  0  0  0
    4.0898   17.7374   22.4140 N   0  0  0  0  0  0  0  0  0  0  0  0
    5.4777   18.3473   23.1039 S   0  0  0  0  0  0  0  0  0  0  0  0
    5.7598   19.4162   21.8066 C   0  0  0  0  0  0  0  0  0  0  0  0
    4.8499   19.3267   20.8662 N   0  0  0  0  0  0  0  0  0  0  0  0
    6.9713   20.3898   21.7308 C   0  0  0  0  0  0  0  0  0  0  0  0
    6.9919   21.4613   20.6702 C   0  0  0  0  0  0  0  0  0  0  0  0
    6.7732   21.8367   22.1067 C   0  0  0  0  0  0  0  0  0  0  0  0
    0.2293   19.6579   16.9343 O   0  0  0  0  0  0  0  0  0  0  0  0
    0.0873   19.3088   18.3056 C   0  0  0  0  0  0  0  0  0  0  0  0
    0.1005   18.8472   16.4113 H   0  0  0  0  0  0  0  0  0  0  0  0
 20 21  1  0  0  0
 21  1  1  0  0  0
  1  2  1  0  0  0
  2  3  1  0  0  0
  3 12  1  0  0  0
 12 13  2  0  0  0
 13 14  1  0  0  0
 14 15  1  0  0  0
 15 17  1  0  0  0
 17 18  1  0  0  0
 18 19  1  0  0  0
 15 16  2  0  0  0
  3  4  1  0  0  0
  4  5  1  0  0  0
  5  6  1  0  0  0
  6  7  2  0  0  0
  7  8  1  0  0  0
  8  9  2  0  0  0
  9 10  1  0  0  0
 10 11  2  0  0  0
  5  1  1  0  0  0
 11  6  1  0  0  0
 16 12  1  0  0  0
 19 17  1  0  0  0
 20 22  1  0  0  0
M  END
> <minimizedAffinity>
-9.90927

$$$$
OCNT-2313003


 23 24  0  0  0  0  0  0  0  0999 V2000
    1.9304   16.6000   20.8314 C   0  0  0  0  0  0  0  0  0  0  0  0
    1.9415   15.3026   21.3526 C   0  0  0  0  0  0  0  0  0  0  0  0
    1.1140   14.3278   20.8001 C   0  0  0  0  0  0  0  0  0  0  0  0
    0.2758   14.6633   19.7434 C   0  0  0  0  0  0  0  0  0  0  0  0
   -0.5223   13.7260   19.2160 F   0  0  0  0  0  0  0  0  0  0  0  0
    0.2411   15.9559   19.2234 C   0  0  0  0  0  0  0  0  0  0  0  0
    1.0710   16.9377   19.7654 C   0  0  0  0  0  0  0  0  0  0  0  0
    2.7677   17.6104   21.3924 N   0  0  0  0  0  0  0  0  0  0  0  0
    2.2978   18.5076   21.5130 H   0  0  0  0  0  0  0  0  0  0  0  0
    4.3070   17.8895   20.7918 S   0  0  0  0  0  0  0  0  0  0  0  0
    4.2539   18.5902   19.5315 O   0  0  0  0  0  0  0  0  0  0  0  0
    4.9931   16.6232   20.9200 O   0  0  0  0  0  0  0  0  0  0  0  0
    4.7819   18.4136   23.3544 C   0  0  0  0  0  0  0  0  0  0  0  0
    4.9334   18.9357   21.9734 N   0  0  0  0  0  0  0  0  0  0  0  0
    6.3123   19.4236   21.7196 C   0  0  0  0  0  0  0  0  0  0  0  0
    6.3378   20.9246   21.7792 C   0  0  0  0  0  0  0  0  0  0  0  0
    7.0007   21.7379   20.6944 C   0  0  0  0  0  0  0  0  0  0  0  0
    5.5025   21.7281   20.8131 C   0  0  0  0  0  0  0  0  0  0  0  0
    1.1258   18.2454   19.3486 O   0  0  0  0  0  0  0  0  0  0  0  0
   -0.1102   18.8595   18.9652 C   0  0  0  0  0  0  0  0  0  0  0  0
   -0.1074   19.1066   17.4645 C   0  0  0  0  0  0  0  0  0  0  0  0
   -1.3834   19.0904   17.0001 F   0  0  0  0  0  0  0  0  0  0  0  0
    0.5438   18.0940   16.8341 F   0  0  0  0  0  0  0  0  0  0  0  0
 13 14  1  0  0  0
 14 15  1  0  0  0
 15 16  1  0  0  0
 16 17  1  0  0  0
 17 18  1  0  0  0
 14 10  1  0  0  0
 10 11  2  0  0  0
 10 12  2  0  0  0
 10  8  1  0  0  0
  8  1  1  0  0  0
  1  2  1  0  0  0
  2  3  2  0  0  0
  3  4  1  0  0  0
  4  5  1  0  0  0
  4  6  2  0  0  0
  6  7  1  0  0  0
  7 19  1  0  0  0
 19 20  1  0  0  0
 20 21  1  0  0  0
 21 22  1  0  0  0
 21 23  1  0  0  0
 18 16  1  0  0  0
  7  1  2  0  0  0
  8  9  1  0  0  0
M  END
> <minimizedAffinity>
-9.46502

$$$$
OCNT-2313008


 27 30  0  0  0  0  0  0  0  0999 V2000
    1.7246   17.7884   20.0521 N   0  0  0  0  0  0  0  0  0  0  0  0
    2.8968   17.4184   20.6696 C   0  0  0  0  0  0  0  0  0  0  0  0
    2.8350   16.1453   20.9901 N   0  0  0  0  0  0  0  0  0  0  0  0
    1.6028   15.6795   20.6115 N   0  0  0  0  0  0  0  0  0  0  0  0
    0.9450   16.6507   20.0101 C   0  0  0  0  0  0  0  0  0  0  0  0
    4.0071   18.2687   20.9583 C   0  0  0  0  0  0  0  0  0  0  0  0
    4.6187   19.1656   20.1039 C   0  0  0  0  0  0  0  0  0  0  0  0
    5.7100   19.8474   20.7242 C   0  0  0  0  0  0  0  0  0  0  0  0
    5.8723   19.4425   22.0348 C   0  0  0  0  0  0  0  0  0  0  0  0
    6.9292   19.9437   22.9681 C   0  0  0  0  0  0  0  0  0  0  0  0
    7.5569   21.2388   22.4261 C   0  0  0  0  0  0  0  0  0  0  0  0
    7.8664   21.1406   20.9155 C   0  0  0  0  0  0  0  0  0  0  0  0
    8.5826   22.3974   20.4259 C   0  0  0  0  0  0  0  0  0  0  0  0
    6.5737   20.9034   20.1014 C   0  0  0  0  0  0  0  0  0  0  0  0
    4.7407   18.2618   22.5033 S   0  0  0  0  0  0  0  0  0  0  0  0
   -0.3227   16.5996   19.4957 N   0  0  0  0  0  0  0  0  0  0  0  0
   -0.4718   15.7976   18.2687 C   0  0  0  0  0  0  0  0  0  0  0  0
    0.0607   16.4717   17.0029 C   0  0  0  0  0  0  0  0  0  0  0  0
   -0.1893   17.9720   16.9270 C   0  0  0  0  0  0  0  0  0  0  0  0
   -1.5931   18.3191   17.1531 N   0  0  0  0  0  0  0  0  0  0  0  0
   -2.4968   18.6313   16.1435 C   0  0  0  0  0  0  0  0  0  0  0  0
   -1.9578   18.7950   14.7456 C   0  0  0  0  0  0  0  0  0  0  0  0
   -3.7004   18.7785   16.3647 O   0  0  0  0  0  0  0  0  0  0  0  0
   -2.1622   18.0830   18.4863 C   0  0  0  0  0  0  0  0  0  0  0  0
   -1.1754   17.8050   19.6377 C   0  0  0  0  0  0  0  0  0  0  0  0
    2.0371   19.5089   18.3021 C   0  0  0  0  0  0  0  0  0  0  0  0
    1.3794   19.1232   19.6165 C   0  0  0  0  0  0  0  0  0  0  0  0
 26 27  1  0  0  0
 27  1  1  0  0  0
  1  2  1  0  0  0
  2  6  1  0  0  0
  6  7  2  0  0  0
  7  8  1  0  0  0
  8  9  2  0  0  0
  9 10  1  0  0  0
 10 11  1  0  0  0
 11 12  1  0  0  0
 12 13  1  0  0  0
 12 14  1  0  0  0
  9 15  1  0  0  0
  2  3  2  0  0  0
  3  4  1  0  0  0
  4  5  2  0  0  0
  5 16  1  0  0  0
 16 17  1  0  0  0
 17 18  1  0  0  0
 18 19  1  0  0  0
 19 20  1  0  0  0
 20 21  1  0  0  0
 21 22  1  0  0  0
 21 23  2  0  0  0
 20 24  1  0  0  0
 24 25  1  0  0  0
  5  1  1  0  0  0
 25 16  1  0  0  0
 15  6  1  0  0  0
 14  8  1  0  0  0
M  END
> <minimizedAffinity>
0.83868

$$$$
OCNT-2313023


 33 35  0  0  0  0  0  0  0  0999 V2000
    3.6488   16.5012   21.2517 C   0  0  0  0  0  0  0  0  0  0  0  0
    2.3360   16.3604   20.7675 C   0  0  0  0  0  0  0  0  0  0  0  0
    1.6407   15.1525   20.9091 C   0  0  0  0  0  0  0  0  0  0  0  0
    2.2463   14.0499   21.5039 C   0  0  0  0  0  0  0  0  0  0  0  0
    3.5427   14.1789   21.9929 C   0  0  0  0  0  0  0  0  0  0  0  0
    4.2379   15.3900   21.8746 C   0  0  0  0  0  0  0  0  0  0  0  0
    5.4940   15.3477   22.4039 O   0  0  0  0  0  0  0  0  0  0  0  0
    5.9130   16.2274   22.2973 H   0  0  0  0  0  0  0  0  0  0  0  0
    4.8777   18.6248   21.8983 C   0  0  0  0  0  0  0  0  0  0  0  0
    5.0689   18.3833   23.0872 O   0  0  0  0  0  0  0  0  0  0  0  0
    4.2189   17.7797   21.0343 N   0  0  0  0  0  0  0  0  0  0  0  0
    4.1352   18.1256   20.0818 H   0  0  0  0  0  0  0  0  0  0  0  0
    4.7550   20.6784   20.3562 C   0  0  0  0  0  0  0  0  0  0  0  0
    5.2443   21.8515   19.8814 N   0  0  0  0  0  0  0  0  0  0  0  0
    6.4083   22.2947   20.4017 C   0  0  0  0  0  0  0  0  0  0  0  0
    7.1131   21.6217   21.3812 C   0  0  0  0  0  0  0  0  0  0  0  0
    6.5921   20.4211   21.8569 C   0  0  0  0  0  0  0  0  0  0  0  0
    5.3848   19.9206   21.3459 C   0  0  0  0  0  0  0  0  0  0  0  0
    3.5608   20.2202   19.8300 O   0  0  0  0  0  0  0  0  0  0  0  0
    1.2425   20.5131   19.3760 C   0  0  0  0  0  0  0  0  0  0  0  0
    2.5327   21.2137   19.7646 C   0  0  0  0  0  0  0  0  0  0  0  0
   -0.0148   15.0215   20.2743 S   0  0  0  0  0  0  0  0  0  0  0  0
    0.0821   14.5207   18.9185 O   0  0  0  0  0  0  0  0  0  0  0  0
   -0.8277   14.3519   21.2656 O   0  0  0  0  0  0  0  0  0  0  0  0
   -0.4970   16.6340   20.1383 N   0  0  0  0  0  0  0  0  0  0  0  0
   -1.2643   16.8626   20.7678 H   0  0  0  0  0  0  0  0  0  0  0  0
   -0.4464   17.2822   18.8731 C   0  0  0  0  0  0  0  0  0  0  0  0
    0.7503   17.3688   18.1600 C   0  0  0  0  0  0  0  0  0  0  0  0
    0.7755   17.9811   16.9057 C   0  0  0  0  0  0  0  0  0  0  0  0
   -0.3970   18.5087   16.3656 C   0  0  0  0  0  0  0  0  0  0  0  0
   -1.5881   18.4236   17.0849 C   0  0  0  0  0  0  0  0  0  0  0  0
   -3.0349   19.0757   16.4198 Cl  0  0  0  0  0  0  0  0  0  0  0  0
   -1.6200   17.8135   18.3384 C   0  0  0  0  0  0  0  0  0  0  0  0
 20 21  1  0  0  0
 21 19  1  0  0  0
 19 13  1  0  0  0
 13 14  1  0  0  0
 14 15  2  0  0  0
 15 16  1  0  0  0
 16 17  2  0  0  0
 17 18  1  0  0  0
 18  9  1  0  0  0
  9 10  2  0  0  0
  9 11  1  0  0  0
 11  1  1  0  0  0
  1  2  1  0  0  0
  2  3  2  0  0  0
  3 22  1  0  0  0
 22 23  2  0  0  0
 22 24  2  0  0  0
 22 25  1  0  0  0
 25 27  1  0  0  0
 27 28  2  0  0  0
 28 29  1  0  0  0
 29 30  2  0  0  0
 30 31  1  0  0  0
 31 32  1  0  0  0
 31 33  2  0  0  0
  3  4  1  0  0  0
  4  5  2  0  0  0
  5  6  1  0  0  0
  6  7  1  0  0  0
 18 13  2  0  0  0
  6  1  2  0  0  0
 33 27  1  0  0  0
 11 12  1  0  0  0
 25 26  1  0  0  0
  7  8  1  0  0  0
M  END
> <minimizedAffinity>
-5.26082

$$$$
OCNT-2313024


 33 38  0  0  0  0  0  0  0  0999 V2000
    2.3124   15.9034   21.3874 C   0  0  0  0  0  0  0  0  0  0  0  0
    1.7480   15.9488   20.1989 N   0  0  0  0  0  0  0  0  0  0  0  0
    0.8902   14.8729   20.2144 C   0  0  0  0  0  0  0  0  0  0  0  0
    0.9058   14.1846   21.3669 N   0  0  0  0  0  0  0  0  0  0  0  0
    1.8466   14.8584   22.1396 O   0  0  0  0  0  0  0  0  0  0  0  0
    4.4107   17.6965   19.6289 C   0  0  0  0  0  0  0  0  0  0  0  0
    4.2094   17.7022   21.0973 C   0  0  0  0  0  0  0  0  0  0  0  0
    3.3884   16.9163   21.8850 C   0  0  0  0  0  0  0  0  0  0  0  0
    3.6793   17.1108   23.2000 N   0  0  0  0  0  0  0  0  0  0  0  0
    4.6589   17.9972   23.2704 N   0  0  0  0  0  0  0  0  0  0  0  0
    4.9047   18.4805   22.0190 N   0  0  0  0  0  0  0  0  0  0  0  0
    5.8094   19.5654   21.8630 C   0  0  0  0  0  0  0  0  0  0  0  0
    6.9811   19.5436   22.6503 C   0  0  0  0  0  0  0  0  0  0  0  0
    7.9270   20.5536   22.5356 C   0  0  0  0  0  0  0  0  0  0  0  0
    7.6987   21.6023   21.6556 C   0  0  0  0  0  0  0  0  0  0  0  0
    6.5123   21.6601   20.9071 C   0  0  0  0  0  0  0  0  0  0  0  0
    6.2737   22.7547   20.0649 C   0  0  0  0  0  0  0  0  0  0  0  0
    5.0811   22.8482   19.3641 C   0  0  0  0  0  0  0  0  0  0  0  0
    4.1620   21.8378   19.5338 C   0  0  0  0  0  0  0  0  0  0  0  0
    4.3665   20.7621   20.3269 N   0  0  0  0  0  0  0  0  0  0  0  0
    5.5323   20.6409   21.0039 C   0  0  0  0  0  0  0  0  0  0  0  0
    0.0455   14.5353   19.0727 C   0  0  0  0  0  0  0  0  0  0  0  0
   -0.3749   13.2134   18.8733 C   0  0  0  0  0  0  0  0  0  0  0  0
   -1.1852   12.8806   17.7863 C   0  0  0  0  0  0  0  0  0  0  0  0
   -1.5847   13.8652   16.8833 C   0  0  0  0  0  0  0  0  0  0  0  0
   -1.1753   15.1944   17.0556 C   0  0  0  0  0  0  0  0  0  0  0  0
   -0.3631   15.5183   18.1568 C   0  0  0  0  0  0  0  0  0  0  0  0
   -1.6125   16.2643   16.0879 C   0  0  0  0  0  0  0  0  0  0  0  0
   -1.1606   17.5790   16.5050 N   0  0  0  0  0  0  0  0  0  0  0  0
   -1.8791   18.4978   17.2198 C   0  0  0  0  0  0  0  0  0  0  0  0
   -1.0133   19.5487   17.4156 C   0  0  0  0  0  0  0  0  0  0  0  0
    0.2089   19.2847   16.8528 N   0  0  0  0  0  0  0  0  0  0  0  0
    0.0898   18.0940   16.3095 C   0  0  0  0  0  0  0  0  0  0  0  0
  6  7  1  0  0  0
  7  8  2  0  0  0
  8  1  1  0  0  0
  1  2  2  0  0  0
  2  3  1  0  0  0
  3 22  1  0  0  0
 22 23  1  0  0  0
 23 24  2  0  0  0
 24 25  1  0  0  0
 25 26  2  0  0  0
 26 28  1  0  0  0
 28 29  1  0  0  0
 29 30  1  0  0  0
 30 31  2  0  0  0
 31 32  1  0  0  0
 32 33  2  0  0  0
 26 27  1  0  0  0
  3  4  2  0  0  0
  4  5  1  0  0  0
  8  9  1  0  0  0
  9 10  2  0  0  0
 10 11  1  0  0  0
 11 12  1  0  0  0
 12 13  1  0  0  0
 13 14  2  0  0  0
 14 15  1  0  0  0
 15 16  2  0  0  0
 16 17  1  0  0  0
 17 18  2  0  0  0
 18 19  1  0  0  0
 19 20  2  0  0  0
 20 21  1  0  0  0
 11  7  1  0  0  0
 21 12  2  0  0  0
  5  1  1  0  0  0
 21 16  1  0  0  0
 27 22  2  0  0  0
 33 29  1  0  0  0
M  END
> <minimizedAffinity>
1.44661

$$$$
OCNT-2313026


 24 26  0  0  0  0  0  0  0  0999 V2000
    1.3079   17.4660   18.9357 C   0  0  0  0  0  0  0  0  0  0  0  0
    2.6405   18.1915   19.2270 C   0  0  0  0  0  0  0  0  0  0  0  0
    3.2232   17.6040   20.4501 N   0  0  0  0  0  0  0  0  0  0  0  0
    4.3908   18.0051   21.0847 C   0  0  0  0  0  0  0  0  0  0  0  0
    4.8026   17.4995   22.1326 O   0  0  0  0  0  0  0  0  0  0  0  0
    2.4172   16.5133   20.8375 C   0  0  0  0  0  0  0  0  0  0  0  0
    2.5961   15.6212   21.8830 C   0  0  0  0  0  0  0  0  0  0  0  0
    1.6642   14.5931   22.0599 C   0  0  0  0  0  0  0  0  0  0  0  0
    0.5706   14.4640   21.1947 C   0  0  0  0  0  0  0  0  0  0  0  0
    0.3932   15.3647   20.1451 C   0  0  0  0  0  0  0  0  0  0  0  0
    1.3204   16.3877   19.9825 C   0  0  0  0  0  0  0  0  0  0  0  0
    5.1946   19.1325   20.4310 C   0  0  0  0  0  0  0  0  0  0  0  0
    4.3110   19.9740   19.4935 C   0  0  0  0  0  0  0  0  0  0  0  0
    3.5595   21.0835   20.2205 C   0  0  0  0  0  0  0  0  0  0  0  0
    4.5496   21.9611   20.9582 C   0  0  0  0  0  0  0  0  0  0  0  0
    5.4229   21.1904   21.8074 N   0  0  0  0  0  0  0  0  0  0  0  0
    5.9115   19.9558   21.4881 C   0  0  0  0  0  0  0  0  0  0  0  0
    6.8903   19.5262   22.0976 O   0  0  0  0  0  0  0  0  0  0  0  0
    5.9838   21.6791   22.4961 H   0  0  0  0  0  0  0  0  0  0  0  0
    0.0881   18.3793   19.0786 C   0  0  0  0  0  0  0  0  0  0  0  0
   -0.4761   18.7665   17.7350 C   0  0  0  0  0  0  0  0  0  0  0  0
    0.1280   19.3852   16.8708 O   0  0  0  0  0  0  0  0  0  0  0  0
   -2.4777   18.8855   16.5260 C   0  0  0  0  0  0  0  0  0  0  0  0
   -1.7671   18.3434   17.6403 O   0  0  0  0  0  0  0  0  0  0  0  0
 23 24  1  0  0  0
 24 21  1  0  0  0
 21 22  2  0  0  0
 21 20  1  0  0  0
 20  1  1  0  0  0
  1  2  1  0  0  0
  2  3  1  0  0  0
  3  4  1  0  0  0
  4  5  2  0  0  0
  4 12  1  0  0  0
 12 13  1  0  0  0
 13 14  1  0  0  0
 14 15  1  0  0  0
 15 16  1  0  0  0
 16 17  1  0  0  0
 17 18  2  0  0  0
  3  6  1  0  0  0
  6  7  2  0  0  0
  7  8  1  0  0  0
  8  9  2  0  0  0
  9 10  1  0  0  0
 10 11  2  0  0  0
 11  1  1  0  0  0
 17 12  1  0  0  0
 11  6  1  0  0  0
 16 19  1  0  0  0
M  END
> <minimizedAffinity>
-9.88841

$$$$
OCNT-2313032


 26 28  0  0  0  0  0  0  0  0999 V2000
    2.1759   20.0891   18.9792 N   0  0  0  0  0  0  0  0  0  0  0  0
    1.8407   20.9239   18.5054 H   0  0  0  0  0  0  0  0  0  0  0  0
    6.8489   20.9573   22.2075 C   0  0  0  0  0  0  0  0  0  0  0  0
    5.6241   20.7151   21.3713 C   0  0  0  0  0  0  0  0  0  0  0  0
    5.1604   21.7293   20.5244 C   0  0  0  0  0  0  0  0  0  0  0  0
    4.0251   21.5407   19.7255 C   0  0  0  0  0  0  0  0  0  0  0  0
    3.3393   20.3240   19.7116 C   0  0  0  0  0  0  0  0  0  0  0  0
    3.7868   19.3221   20.5834 C   0  0  0  0  0  0  0  0  0  0  0  0
    4.9178   19.5023   21.4009 C   0  0  0  0  0  0  0  0  0  0  0  0
    5.3467   18.3791   22.2772 C   0  0  0  0  0  0  0  0  0  0  0  0
    4.8025   18.3507   23.5324 N   0  0  0  0  0  0  0  0  0  0  0  0
    6.1551   17.5345   21.9194 O   0  0  0  0  0  0  0  0  0  0  0  0
    4.3400   19.1584   23.9267 H   0  0  0  0  0  0  0  0  0  0  0  0
    5.1904   17.6694   24.1724 H   0  0  0  0  0  0  0  0  0  0  0  0
    1.0638   19.2997   19.5136 C   0  0  0  0  0  0  0  0  0  0  0  0
    0.3275   18.4028   18.5694 C   0  0  0  0  0  0  0  0  0  0  0  0
   -0.3444   18.7495   17.4105 C   0  0  0  0  0  0  0  0  0  0  0  0
   -0.8173   17.5936   16.8699 N   0  0  0  0  0  0  0  0  0  0  0  0
   -0.4932   16.5041   17.5775 N   0  0  0  0  0  0  0  0  0  0  0  0
    0.1774   16.9875   18.6305 C   0  0  0  0  0  0  0  0  0  0  0  0
   -1.3569   17.4729   16.0186 H   0  0  0  0  0  0  0  0  0  0  0  0
    0.7109   16.0924   19.6665 C   0  0  0  0  0  0  0  0  0  0  0  0
    1.7980   16.3938   20.4615 C   0  0  0  0  0  0  0  0  0  0  0  0
    2.1616   15.1423   21.5694 S   0  0  0  0  0  0  0  0  0  0  0  0
    0.8936   14.1670   20.9639 C   0  0  0  0  0  0  0  0  0  0  0  0
    0.2023   14.7878   19.9446 C   0  0  0  0  0  0  0  0  0  0  0  0
  3  4  1  0  0  0
  4  5  1  0  0  0
  5  6  2  0  0  0
  6  7  1  0  0  0
  7  1  1  0  0  0
  1 15  1  0  0  0
 15 16  1  0  0  0
 16 17  2  0  0  0
 17 18  1  0  0  0
 18 19  1  0  0  0
 19 20  2  0  0  0
 20 22  1  0  0  0
 22 23  2  0  0  0
 23 24  1  0  0  0
 24 25  1  0  0  0
 25 26  2  0  0  0
  7  8  2  0  0  0
  8  9  1  0  0  0
  9 10  1  0  0  0
 10 11  1  0  0  0
 10 12  2  0  0  0
  9  4  2  0  0  0
 20 16  1  0  0  0
 26 22  1  0  0  0
  1  2  1  0  0  0
 18 21  1  0  0  0
 11 13  1  0  0  0
 11 14  1  0  0  0
M  END
> <minimizedAffinity>
-10.71828

$$$$
OCNT-2313037


 29 32  0  0  0  0  0  0  0  0999 V2000
    3.6135   17.2413   21.0020 N   0  0  0  0  0  0  0  0  0  0  0  0
    2.9393   16.0774   21.3276 C   0  0  0  0  0  0  0  0  0  0  0  0
    3.2915   15.2452   22.1567 O   0  0  0  0  0  0  0  0  0  0  0  0
    3.2944   17.7891   20.2212 H   0  0  0  0  0  0  0  0  0  0  0  0
    5.6929   21.3339   20.8278 C   0  0  0  0  0  0  0  0  0  0  0  0
    6.8402   21.3377   21.6236 C   0  0  0  0  0  0  0  0  0  0  0  0
    7.2311   20.1996   22.3431 C   0  0  0  0  0  0  0  0  0  0  0  0
    6.4247   19.0646   22.2308 C   0  0  0  0  0  0  0  0  0  0  0  0
    6.5196   17.8193   22.7868 N   0  0  0  0  0  0  0  0  0  0  0  0
    5.5302   16.9877   22.4395 N   0  0  0  0  0  0  0  0  0  0  0  0
    4.7638   17.6985   21.6136 C   0  0  0  0  0  0  0  0  0  0  0  0
    5.2764   19.0219   21.4499 C   0  0  0  0  0  0  0  0  0  0  0  0
    4.9042   20.1775   20.7353 C   0  0  0  0  0  0  0  0  0  0  0  0
    7.2343   17.4721   23.4161 H   0  0  0  0  0  0  0  0  0  0  0  0
    3.8897   22.2989   19.6095 C   0  0  0  0  0  0  0  0  0  0  0  0
    5.2260   22.3883   20.0886 O   0  0  0  0  0  0  0  0  0  0  0  0
    1.6966   15.8917   20.5339 C   0  0  0  0  0  0  0  0  0  0  0  0
    1.1973   16.8833   19.7764 N   0  0  0  0  0  0  0  0  0  0  0  0
    0.0848   16.3896   19.1813 N   0  0  0  0  0  0  0  0  0  0  0  0
   -0.1360   15.0870   19.5639 C   0  0  0  0  0  0  0  0  0  0  0  0
    0.8787   14.7378   20.4222 C   0  0  0  0  0  0  0  0  0  0  0  0
   -0.6710   17.2098   18.2990 C   0  0  0  0  0  0  0  0  0  0  0  0
   -2.0470   16.9557   18.1385 C   0  0  0  0  0  0  0  0  0  0  0  0
   -2.8164   17.7445   17.2795 C   0  0  0  0  0  0  0  0  0  0  0  0
   -2.2157   18.7842   16.5817 C   0  0  0  0  0  0  0  0  0  0  0  0
   -2.9529   19.5399   15.7580 F   0  0  0  0  0  0  0  0  0  0  0  0
   -0.8617   19.0509   16.7253 C   0  0  0  0  0  0  0  0  0  0  0  0
   -0.0946   18.2638   17.5825 C   0  0  0  0  0  0  0  0  0  0  0  0
    1.2073   18.5632   17.6805 F   0  0  0  0  0  0  0  0  0  0  0  0
 15 16  1  0  0  0
 16  5  1  0  0  0
  5  6  2  0  0  0
  6  7  1  0  0  0
  7  8  2  0  0  0
  8  9  1  0  0  0
  9 10  1  0  0  0
 10 11  2  0  0  0
 11  1  1  0  0  0
  1  2  1  0  0  0
  2  3  2  0  0  0
  2 17  1  0  0  0
 17 18  2  0  0  0
 18 19  1  0  0  0
 19 22  1  0  0  0
 22 23  1  0  0  0
 23 24  2  0  0  0
 24 25  1  0  0  0
 25 26  1  0  0  0
 25 27  2  0  0  0
 27 28  1  0  0  0
 28 29  1  0  0  0
 19 20  1  0  0  0
 20 21  2  0  0  0
 11 12  1  0  0  0
 12 13  2  0  0  0
 13  5  1  0  0  0
 12  8  1  0  0  0
 21 17  1  0  0  0
 28 22  2  0  0  0
  9 14  1  0  0  0
  1  4  1  0  0  0
M  END
> <minimizedAffinity>
-7.86997

$$$$
OCNT-2313041


 23 25  0  0  0  0  0  0  0  0999 V2000
    3.3124   19.6564   20.0871 N   0  0  0  0  0  0  0  0  0  0  0  0
    2.8712   18.3576   20.6095 C   0  0  0  0  0  0  0  0  0  0  0  0
    1.9077   17.6459   19.6426 C   0  0  0  0  0  0  0  0  0  0  0  0
    0.6864   18.4650   19.3403 N   0  0  0  0  0  0  0  0  0  0  0  0
    0.9599   19.9431   19.3715 C   0  0  0  0  0  0  0  0  0  0  0  0
    2.4314   20.2785   19.0868 C   0  0  0  0  0  0  0  0  0  0  0  0
    7.7041   19.6989   22.5598 C   0  0  0  0  0  0  0  0  0  0  0  0
    6.6949   20.2628   21.6842 N   0  0  0  0  0  0  0  0  0  0  0  0
    6.8628   21.5299   21.1820 C   0  0  0  0  0  0  0  0  0  0  0  0
    5.9245   22.0914   20.4156 C   0  0  0  0  0  0  0  0  0  0  0  0
    4.7513   21.4979   20.0449 N   0  0  0  0  0  0  0  0  0  0  0  0
    4.4982   20.2849   20.4782 C   0  0  0  0  0  0  0  0  0  0  0  0
    5.5178   19.5591   21.4378 C   0  0  0  0  0  0  0  0  0  0  0  0
    5.2542   18.4661   21.9254 O   0  0  0  0  0  0  0  0  0  0  0  0
   -0.1860   17.9720   17.9567 S   0  0  0  0  0  0  0  0  0  0  0  0
    0.6633   18.2129   16.8089 O   0  0  0  0  0  0  0  0  0  0  0  0
   -1.5131   18.5436   18.0361 O   0  0  0  0  0  0  0  0  0  0  0  0
   -0.3453   16.2216   18.1931 C   0  0  0  0  0  0  0  0  0  0  0  0
   -0.8564   15.4183   17.1701 C   0  0  0  0  0  0  0  0  0  0  0  0
   -0.9735   14.0435   17.3750 C   0  0  0  0  0  0  0  0  0  0  0  0
   -0.5872   13.4825   18.5944 C   0  0  0  0  0  0  0  0  0  0  0  0
   -0.0860   14.2919   19.6158 C   0  0  0  0  0  0  0  0  0  0  0  0
    0.0344   15.6671   19.4194 C   0  0  0  0  0  0  0  0  0  0  0  0
  7  8  1  0  0  0
  8  9  1  0  0  0
  9 10  2  0  0  0
 10 11  1  0  0  0
 11 12  2  0  0  0
 12  1  1  0  0  0
  1  2  1  0  0  0
  2  3  1  0  0  0
  3  4  1  0  0  0
  4 15  1  0  0  0
 15 16  2  0  0  0
 15 17  2  0  0  0
 15 18  1  0  0  0
 18 19  2  0  0  0
 19 20  1  0  0  0
 20 21  2  0  0  0
 21 22  1  0  0  0
 22 23  2  0  0  0
  4  5  1  0  0  0
  5  6  1  0  0  0
 12 13  1  0  0  0
 13 14  2  0  0  0
 13  8  1  0  0  0
  6  1  1  0  0  0
 23 18  1  0  0  0
M  END
> <minimizedAffinity>
-8.26666

$$$$
OCNT-2313054


 26 28  0  0  0  0  0  0  0  0999 V2000
    4.7385   20.6144   20.8883 C   0  0  0  0  0  0  0  0  0  0  0  0
    3.3504   20.9930   20.3443 C   0  0  0  0  0  0  0  0  0  0  0  0
    2.6697   19.7463   19.9822 N   0  0  0  0  0  0  0  0  0  0  0  0
    1.4608   19.7991   19.3036 C   0  0  0  0  0  0  0  0  0  0  0  0
    0.8360   20.8581   19.1847 O   0  0  0  0  0  0  0  0  0  0  0  0
    3.3348   18.6833   20.6174 C   0  0  0  0  0  0  0  0  0  0  0  0
    2.9465   17.3669   20.8024 C   0  0  0  0  0  0  0  0  0  0  0  0
    3.7900   16.5096   21.5191 C   0  0  0  0  0  0  0  0  0  0  0  0
    4.9959   16.9753   22.0575 C   0  0  0  0  0  0  0  0  0  0  0  0
    5.3729   18.3070   21.8926 C   0  0  0  0  0  0  0  0  0  0  0  0
    4.5317   19.1493   21.1768 C   0  0  0  0  0  0  0  0  0  0  0  0
    0.8902   18.5972   18.6305 C   0  0  0  0  0  0  0  0  0  0  0  0
    0.7761   17.4150   19.3579 C   0  0  0  0  0  0  0  0  0  0  0  0
    0.1655   16.3091   18.7554 C   0  0  0  0  0  0  0  0  0  0  0  0
   -0.3069   16.4390   17.4435 C   0  0  0  0  0  0  0  0  0  0  0  0
   -0.1647   17.6606   16.8006 C   0  0  0  0  0  0  0  0  0  0  0  0
    0.4148   18.7408   17.3642 N   0  0  0  0  0  0  0  0  0  0  0  0
    0.0374   14.9988   19.4852 C   0  0  0  0  0  0  0  0  0  0  0  0
   -0.6678   15.1251   20.6416 F   0  0  0  0  0  0  0  0  0  0  0  0
   -0.5950   14.0361   18.7621 F   0  0  0  0  0  0  0  0  0  0  0  0
    1.2423   14.4733   19.8380 F   0  0  0  0  0  0  0  0  0  0  0  0
    5.8396   20.8625   19.8547 C   0  0  0  0  0  0  0  0  0  0  0  0
    7.0269   21.5501   20.4811 C   0  0  0  0  0  0  0  0  0  0  0  0
    8.0905   21.7549   19.9131 O   0  0  0  0  0  0  0  0  0  0  0  0
    7.3909   21.1108   22.7566 C   0  0  0  0  0  0  0  0  0  0  0  0
    6.7400   21.9061   21.7646 O   0  0  0  0  0  0  0  0  0  0  0  0
 25 26  1  0  0  0
 26 23  1  0  0  0
 23 24  2  0  0  0
 23 22  1  0  0  0
 22  1  1  0  0  0
  1  2  1  0  0  0
  2  3  1  0  0  0
  3  4  1  0  0  0
  4  5  2  0  0  0
  4 12  1  0  0  0
 12 13  2  0  0  0
 13 14  1  0  0  0
 14 18  1  0  0  0
 18 19  1  0  0  0
 18 20  1  0  0  0
 18 21  1  0  0  0
 14 15  2  0  0  0
 15 16  1  0  0  0
 16 17  2  0  0  0
  3  6  1  0  0  0
  6  7  2  0  0  0
  7  8  1  0  0  0
  8  9  2  0  0  0
  9 10  1  0  0  0
 10 11  2  0  0  0
 11  1  1  0  0  0
 17 12  1  0  0  0
 11  6  1  0  0  0
M  END
> <minimizedAffinity>
-9.15699

$$$$
OCNT-2313058


 24 26  0  0  0  0  0  0  0  0999 V2000
    3.7332   14.1153   22.0483 O   0  0  0  0  0  0  0  0  0  0  0  0
    2.6460   14.5602   21.7008 C   0  0  0  0  0  0  0  0  0  0  0  0
    2.3650   15.8727   21.3523 N   0  0  0  0  0  0  0  0  0  0  0  0
    1.4084   16.0757   21.0911 H   0  0  0  0  0  0  0  0  0  0  0  0
    3.2583   16.9627   21.3184 C   0  0  0  0  0  0  0  0  0  0  0  0
    4.3223   17.1310   22.2021 C   0  0  0  0  0  0  0  0  0  0  0  0
    5.1683   18.2455   22.1030 C   0  0  0  0  0  0  0  0  0  0  0  0
    4.9622   19.2142   21.1127 C   0  0  0  0  0  0  0  0  0  0  0  0
    3.8932   19.0462   20.2236 C   0  0  0  0  0  0  0  0  0  0  0  0
    3.0522   17.9297   20.3292 C   0  0  0  0  0  0  0  0  0  0  0  0
    5.8234   20.3461   21.0140 N   0  0  0  0  0  0  0  0  0  0  0  0
    7.0744   20.5012   21.5749 C   0  0  0  0  0  0  0  0  0  0  0  0
    7.5111   21.7512   21.2052 C   0  0  0  0  0  0  0  0  0  0  0  0
    6.5790   22.3811   20.4349 N   0  0  0  0  0  0  0  0  0  0  0  0
    5.5856   21.5245   20.3362 C   0  0  0  0  0  0  0  0  0  0  0  0
    1.4014   13.6864   21.6119 C   0  0  0  0  0  0  0  0  0  0  0  0
    0.1668   14.4748   21.1714 C   0  0  0  0  0  0  0  0  0  0  0  0
    0.2835   15.0518   19.7493 C   0  0  0  0  0  0  0  0  0  0  0  0
   -0.5998   14.2475   18.7807 C   0  0  0  0  0  0  0  0  0  0  0  0
   -0.5820   14.8469   17.3757 C   0  0  0  0  0  0  0  0  0  0  0  0
   -0.9904   16.2523   17.3819 N   0  0  0  0  0  0  0  0  0  0  0  0
   -0.1099   17.0473   18.2372 C   0  0  0  0  0  0  0  0  0  0  0  0
   -0.0989   16.5385   19.6794 C   0  0  0  0  0  0  0  0  0  0  0  0
   -1.9452   16.3167   17.7363 H   0  0  0  0  0  0  0  0  0  0  0  0
  1  2  2  0  0  0
  2 16  1  0  0  0
 16 17  1  0  0  0
 17 18  1  0  0  0
 18 19  1  0  0  0
 19 20  1  0  0  0
 20 21  1  0  0  0
 21 22  1  0  0  0
 22 23  1  0  0  0
  2  3  1  0  0  0
  3  5  1  0  0  0
  5  6  1  0  0  0
  6  7  2  0  0  0
  7  8  1  0  0  0
  8 11  1  0  0  0
 11 12  1  0  0  0
 12 13  2  0  0  0
 13 14  1  0  0  0
 14 15  2  0  0  0
  8  9  2  0  0  0
  9 10  1  0  0  0
 23 18  1  0  0  0
 10  5  2  0  0  0
 15 11  1  0  0  0
 21 24  1  0  0  0
  3  4  1  0  0  0
M  END
> <minimizedAffinity>
-9.09908

$$$$
OCNT-2313060


 27 29  0  0  0  0  0  0  0  0999 V2000
    2.6184   16.3630   21.9715 N   0  0  0  0  0  0  0  0  0  0  0  0
    3.9608   16.4189   21.6682 C   0  0  0  0  0  0  0  0  0  0  0  0
    4.6382   15.4128   21.4782 O   0  0  0  0  0  0  0  0  0  0  0  0
    2.1230   17.2493   21.9788 H   0  0  0  0  0  0  0  0  0  0  0  0
    4.5902   17.7781   21.5878 C   0  0  0  0  0  0  0  0  0  0  0  0
    5.7438   17.9731   22.3666 C   0  0  0  0  0  0  0  0  0  0  0  0
    6.4109   19.1988   22.3691 C   0  0  0  0  0  0  0  0  0  0  0  0
    5.9444   20.2580   21.5855 C   0  0  0  0  0  0  0  0  0  0  0  0
    4.7871   20.0669   20.8113 C   0  0  0  0  0  0  0  0  0  0  0  0
    4.1138   18.8348   20.7861 C   0  0  0  0  0  0  0  0  0  0  0  0
    6.6504   21.5890   21.6358 C   0  0  0  0  0  0  0  0  0  0  0  0
    7.3646   21.8361   20.4312 O   0  0  0  0  0  0  0  0  0  0  0  0
    7.8405   22.6739   20.5591 H   0  0  0  0  0  0  0  0  0  0  0  0
    2.9943   18.6093   20.0218 O   0  0  0  0  0  0  0  0  0  0  0  0
    2.4557   19.7181   19.3078 C   0  0  0  0  0  0  0  0  0  0  0  0
    1.8406   15.1308   21.8919 C   0  0  0  0  0  0  0  0  0  0  0  0
    0.7091   15.2592   20.8483 C   0  0  0  0  0  0  0  0  0  0  0  0
    0.8328   16.4590   19.8833 C   0  0  0  0  0  0  0  0  0  0  0  0
    0.0077   15.9978   18.7216 C   0  0  0  0  0  0  0  0  0  0  0  0
   -0.4790   16.7591   17.6720 C   0  0  0  0  0  0  0  0  0  0  0  0
   -1.1991   16.1152   16.6635 C   0  0  0  0  0  0  0  0  0  0  0  0
   -1.4121   14.7288   16.7114 C   0  0  0  0  0  0  0  0  0  0  0  0
   -0.9080   13.9680   17.7683 C   0  0  0  0  0  0  0  0  0  0  0  0
   -0.2038   14.6170   18.7688 C   0  0  0  0  0  0  0  0  0  0  0  0
    0.4459   14.0103   19.9736 C   0  0  0  0  0  0  0  0  0  0  0  0
    0.0109   14.2974   23.5484 C   0  0  0  0  0  0  0  0  0  0  0  0
    1.4710   14.6471   23.3080 C   0  0  0  0  0  0  0  0  0  0  0  0
 26 27  1  0  0  0
 27 16  1  0  0  0
 16  1  1  0  0  0
  1  2  1  0  0  0
  2  3  2  0  0  0
  2  5  1  0  0  0
  5  6  1  0  0  0
  6  7  2  0  0  0
  7  8  1  0  0  0
  8 11  1  0  0  0
 11 12  1  0  0  0
  8  9  2  0  0  0
  9 10  1  0  0  0
 10 14  1  0  0  0
 14 15  1  0  0  0
 16 17  1  0  0  0
 17 18  1  0  0  0
 18 19  1  0  0  0
 19 20  2  0  0  0
 20 21  1  0  0  0
 21 22  2  0  0  0
 22 23  1  0  0  0
 23 24  2  0  0  0
 24 25  1  0  0  0
 10  5  2  0  0  0
 25 17  1  0  0  0
 24 19  1  0  0  0
  1  4  1  0  0  0
 12 13  1  0  0  0
M  END
> <minimizedAffinity>
-8.71828

$$$$
OCNT-2313098


 25 27  0  0  0  0  0  0  0  0999 V2000
    3.8883   14.4079   21.8331 O   0  0  0  0  0  0  0  0  0  0  0  0
    3.0194   15.2739   21.8003 C   0  0  0  0  0  0  0  0  0  0  0  0
    3.2640   16.6227   21.9512 N   0  0  0  0  0  0  0  0  0  0  0  0
    2.4953   17.2661   21.8130 H   0  0  0  0  0  0  0  0  0  0  0  0
    1.5518   14.9305   21.6044 C   0  0  0  0  0  0  0  0  0  0  0  0
    0.9516   15.5777   20.3750 C   0  0  0  0  0  0  0  0  0  0  0  0
    0.0389   14.8649   19.5810 C   0  0  0  0  0  0  0  0  0  0  0  0
   -0.5256   15.4223   18.4282 C   0  0  0  0  0  0  0  0  0  0  0  0
   -0.1456   16.7264   18.1037 C   0  0  0  0  0  0  0  0  0  0  0  0
   -0.5038   17.5495   17.0684 N   0  0  0  0  0  0  0  0  0  0  0  0
    0.0859   18.7585   17.0970 N   0  0  0  0  0  0  0  0  0  0  0  0
    0.8416   18.7070   18.1971 C   0  0  0  0  0  0  0  0  0  0  0  0
    0.7460   17.4679   18.8688 C   0  0  0  0  0  0  0  0  0  0  0  0
    1.3049   16.8941   20.0248 C   0  0  0  0  0  0  0  0  0  0  0  0
   -1.1452   17.3457   16.3108 H   0  0  0  0  0  0  0  0  0  0  0  0
    4.6026   17.1828   22.0187 C   0  0  0  0  0  0  0  0  0  0  0  0
    4.5604   18.7168   22.0256 C   0  0  0  0  0  0  0  0  0  0  0  0
    5.3226   19.3624   20.8389 C   0  0  0  0  0  0  0  0  0  0  0  0
    4.3879   20.1930   19.9304 C   0  0  0  0  0  0  0  0  0  0  0  0
    4.4868   21.7075   20.1242 C   0  0  0  0  0  0  0  0  0  0  0  0
    4.7826   22.0798   21.5673 C   0  0  0  0  0  0  0  0  0  0  0  0
    6.1080   21.4910   22.0446 C   0  0  0  0  0  0  0  0  0  0  0  0
    6.5204   20.2146   21.3009 C   0  0  0  0  0  0  0  0  0  0  0  0
    7.3819   19.4559   22.1406 O   0  0  0  0  0  0  0  0  0  0  0  0
    8.2040   19.9632   22.2531 H   0  0  0  0  0  0  0  0  0  0  0  0
  1  2  2  0  0  0
  2  5  1  0  0  0
  5  6  1  0  0  0
  6  7  2  0  0  0
  7  8  1  0  0  0
  8  9  2  0  0  0
  9 10  1  0  0  0
 10 11  1  0  0  0
 11 12  2  0  0  0
 12 13  1  0  0  0
 13 14  2  0  0  0
  2  3  1  0  0  0
  3 16  1  0  0  0
 16 17  1  0  0  0
 17 18  1  0  0  0
 18 19  1  0  0  0
 19 20  1  0  0  0
 20 21  1  0  0  0
 21 22  1  0  0  0
 22 23  1  0  0  0
 23 24  1  0  0  0
 14  6  1  0  0  0
 23 18  1  0  0  0
 13  9  1  0  0  0
 10 15  1  0  0  0
  3  4  1  0  0  0
 24 25  1  0  0  0
M  END
> <minimizedAffinity>
-10.65294

$$$$
OCNT-2313103


 23 24  0  0  0  0  0  0  0  0999 V2000
    2.8335   17.4588   20.5971 N   0  0  0  0  0  0  0  0  0  0  0  0
    3.0114   16.6725   21.7164 C   0  0  0  0  0  0  0  0  0  0  0  0
    3.4924   17.0959   22.7647 O   0  0  0  0  0  0  0  0  0  0  0  0
    2.5284   15.3731   21.5869 N   0  0  0  0  0  0  0  0  0  0  0  0
    1.9429   14.8009   20.3825 C   0  0  0  0  0  0  0  0  0  0  0  0
    0.4384   15.0257   20.2818 C   0  0  0  0  0  0  0  0  0  0  0  0
   -0.3363   15.0724   21.6014 C   0  0  0  0  0  0  0  0  0  0  0  0
    0.0179   13.9652   22.6285 C   0  0  0  0  0  0  0  0  0  0  0  0
    1.2236   14.4214   23.4925 C   0  0  0  0  0  0  0  0  0  0  0  0
    2.5599   14.4997   22.7513 C   0  0  0  0  0  0  0  0  0  0  0  0
    1.9273   17.3495   20.1741 H   0  0  0  0  0  0  0  0  0  0  0  0
    5.3308   20.2420   20.8454 N   0  0  0  0  0  0  0  0  0  0  0  0
    4.6688   21.1964   20.0954 C   0  0  0  0  0  0  0  0  0  0  0  0
    3.5103   20.9209   19.4884 C   0  0  0  0  0  0  0  0  0  0  0  0
    2.8973   19.6280   19.6523 C   0  0  0  0  0  0  0  0  0  0  0  0
    3.4656   18.6724   20.4066 C   0  0  0  0  0  0  0  0  0  0  0  0
    4.8560   18.9269   20.9726 C   0  0  0  0  0  0  0  0  0  0  0  0
    5.5404   18.0163   21.4378 O   0  0  0  0  0  0  0  0  0  0  0  0
    7.3178   21.7078   20.6741 C   0  0  0  0  0  0  0  0  0  0  0  0
    6.6396   20.5617   21.4104 C   0  0  0  0  0  0  0  0  0  0  0  0
   -1.2406   13.6271   23.4998 C   0  0  0  0  0  0  0  0  0  0  0  0
   -1.3991   14.5211   24.7367 C   0  0  0  0  0  0  0  0  0  0  0  0
   -1.2049   12.1671   23.9848 C   0  0  0  0  0  0  0  0  0  0  0  0
 19 20  1  0  0  0
 20 12  1  0  0  0
 12 13  1  0  0  0
 13 14  2  0  0  0
 14 15  1  0  0  0
 15 16  2  0  0  0
 16  1  1  0  0  0
  1  2  1  0  0  0
  2  3  2  0  0  0
  2  4  1  0  0  0
  4  5  1  0  0  0
  5  6  1  0  0  0
  6  7  1  0  0  0
  7  8  1  0  0  0
  8 21  1  0  0  0
 21 22  1  0  0  0
 21 23  1  0  0  0
  8  9  1  0  0  0
  9 10  1  0  0  0
 16 17  1  0  0  0
 17 18  2  0  0  0
 17 12  1  0  0  0
 10  4  1  0  0  0
  1 11  1  0  0  0
M  END
> <minimizedAffinity>
-5.38807

$$$$
OCNT-2313105


 24 25  0  0  0  0  0  0  0  0999 V2000
    1.3511   18.1026   18.7962 C   0  0  0  0  0  0  0  0  0  0  0  0
    7.8875   21.6434   20.7633 C   0  0  0  0  0  0  0  0  0  0  0  0
    6.5844   21.3232   20.7502 C   0  0  0  0  0  0  0  0  0  0  0  0
    6.0378   20.1178   21.4768 C   0  0  0  0  0  0  0  0  0  0  0  0
    4.9039   19.4463   20.6912 C   0  0  0  0  0  0  0  0  0  0  0  0
    3.8477   20.3734   20.2601 N   0  0  0  0  0  0  0  0  0  0  0  0
    2.6926   19.9950   19.5954 C   0  0  0  0  0  0  0  0  0  0  0  0
    1.8744   20.8045   19.1642 O   0  0  0  0  0  0  0  0  0  0  0  0
    2.5387   18.6454   19.4177 N   0  0  0  0  0  0  0  0  0  0  0  0
    4.1297   21.8052   20.4116 C   0  0  0  0  0  0  0  0  0  0  0  0
    5.5656   22.1475   19.9944 C   0  0  0  0  0  0  0  0  0  0  0  0
    2.9750   18.0398   20.0908 H   0  0  0  0  0  0  0  0  0  0  0  0
    0.9875   16.7601   19.3888 C   0  0  0  0  0  0  0  0  0  0  0  0
    1.6751   16.3195   20.5377 C   0  0  0  0  0  0  0  0  0  0  0  0
    1.3983   15.0778   21.1050 C   0  0  0  0  0  0  0  0  0  0  0  0
    0.4297   14.2667   20.5163 C   0  0  0  0  0  0  0  0  0  0  0  0
   -0.2511   14.6803   19.3672 C   0  0  0  0  0  0  0  0  0  0  0  0
    0.0174   15.9288   18.7998 C   0  0  0  0  0  0  0  0  0  0  0  0
    1.9979   14.5461   22.2123 O   0  0  0  0  0  0  0  0  0  0  0  0
    3.3818   14.2323   22.1004 C   0  0  0  0  0  0  0  0  0  0  0  0
   -0.5759   16.4064   17.6622 O   0  0  0  0  0  0  0  0  0  0  0  0
   -1.1672   17.6925   17.7463 C   0  0  0  0  0  0  0  0  0  0  0  0
   -0.9376   18.3156   16.5626 F   0  0  0  0  0  0  0  0  0  0  0  0
   -2.5115   17.5548   17.8541 F   0  0  0  0  0  0  0  0  0  0  0  0
  2  3  2  0  0  0
  3  4  1  0  0  0
  4  5  1  0  0  0
  5  6  1  0  0  0
  6  7  1  0  0  0
  7  8  2  0  0  0
  7  9  1  0  0  0
  9  1  1  0  0  0
  1 13  1  0  0  0
 13 14  1  0  0  0
 14 15  2  0  0  0
 15 19  1  0  0  0
 19 20  1  0  0  0
 15 16  1  0  0  0
 16 17  2  0  0  0
 17 18  1  0  0  0
 18 21  1  0  0  0
 21 22  1  0  0  0
 22 23  1  0  0  0
 22 24  1  0  0  0
  6 10  1  0  0  0
 10 11  1  0  0  0
 11  3  1  0  0  0
 18 13  2  0  0  0
  9 12  1  0  0  0
M  END
> <minimizedAffinity>
-10.15681

$$$$
OCNT-2313113


 25 27  0  0  0  0  0  0  0  0999 V2000
    0.4736   17.8235   18.6577 C   0  0  0  0  0  0  0  0  0  0  0  0
    0.0106   18.9361   18.1152 N   0  0  0  0  0  0  0  0  0  0  0  0
    0.7292   20.0003   18.6165 N   0  0  0  0  0  0  0  0  0  0  0  0
    1.6204   19.5200   19.4495 C   0  0  0  0  0  0  0  0  0  0  0  0
    1.4933   18.1616   19.5066 N   0  0  0  0  0  0  0  0  0  0  0  0
    2.0716   17.5451   20.0613 H   0  0  0  0  0  0  0  0  0  0  0  0
    0.2239   15.4424   19.3852 C   0  0  0  0  0  0  0  0  0  0  0  0
   -0.2433   14.1427   19.1640 C   0  0  0  0  0  0  0  0  0  0  0  0
   -0.8905   13.8285   17.9708 C   0  0  0  0  0  0  0  0  0  0  0  0
   -1.0842   14.8149   17.0063 C   0  0  0  0  0  0  0  0  0  0  0  0
   -0.6365   16.1194   17.2372 C   0  0  0  0  0  0  0  0  0  0  0  0
    0.0188   16.4547   18.4343 C   0  0  0  0  0  0  0  0  0  0  0  0
    0.9876   14.5226   21.3475 C   0  0  0  0  0  0  0  0  0  0  0  0
    0.7929   15.7251   20.6014 O   0  0  0  0  0  0  0  0  0  0  0  0
    2.5382   20.2551   20.1540 N   0  0  0  0  0  0  0  0  0  0  0  0
    3.8853   19.9807   20.1085 C   0  0  0  0  0  0  0  0  0  0  0  0
    4.3795   19.0693   19.4439 O   0  0  0  0  0  0  0  0  0  0  0  0
    2.1469   20.9990   20.7154 H   0  0  0  0  0  0  0  0  0  0  0  0
    4.7652   20.9078   20.9364 C   0  0  0  0  0  0  0  0  0  0  0  0
    5.7810   21.6961   20.0888 C   0  0  0  0  0  0  0  0  0  0  0  0
    7.1541   21.2184   20.5482 C   0  0  0  0  0  0  0  0  0  0  0  0
    6.9160   20.8591   21.9969 C   0  0  0  0  0  0  0  0  0  0  0  0
    6.8431   21.9811   22.7474 F   0  0  0  0  0  0  0  0  0  0  0  0
    7.8960   20.0876   22.4950 F   0  0  0  0  0  0  0  0  0  0  0  0
    5.5803   20.1495   21.9920 C   0  0  0  0  0  0  0  0  0  0  0  0
 13 14  1  0  0  0
 14  7  1  0  0  0
  7  8  2  0  0  0
  8  9  1  0  0  0
  9 10  2  0  0  0
 10 11  1  0  0  0
 11 12  2  0  0  0
 12  1  1  0  0  0
  1  2  2  0  0  0
  2  3  1  0  0  0
  3  4  2  0  0  0
  4 15  1  0  0  0
 15 16  1  0  0  0
 16 17  2  0  0  0
 16 19  1  0  0  0
 19 20  1  0  0  0
 20 21  1  0  0  0
 21 22  1  0  0  0
 22 23  1  0  0  0
 22 24  1  0  0  0
 22 25  1  0  0  0
  4  5  1  0  0  0
 12  7  1  0  0  0
  5  1  1  0  0  0
 25 19  1  0  0  0
 15 18  1  0  0  0
  5  6  1  0  0  0
M  END
> <minimizedAffinity>
-9.34728

$$$$
OCNT-2313117


 26 28  0  0  0  0  0  0  0  0999 V2000
    2.8117   18.0173   20.3123 C   0  0  0  0  0  0  0  0  0  0  0  0
    2.0115   18.7170   19.4352 C   0  0  0  0  0  0  0  0  0  0  0  0
    0.8985   17.8823   19.1415 C   0  0  0  0  0  0  0  0  0  0  0  0
    1.0104   16.7195   19.8035 N   0  0  0  0  0  0  0  0  0  0  0  0
    2.1479   16.8304   20.5120 N   0  0  0  0  0  0  0  0  0  0  0  0
   -0.2426   18.1571   18.2577 C   0  0  0  0  0  0  0  0  0  0  0  0
   -1.4585   17.4702   18.4001 C   0  0  0  0  0  0  0  0  0  0  0  0
   -2.5384   17.7418   17.5512 C   0  0  0  0  0  0  0  0  0  0  0  0
   -2.4118   18.7030   16.5519 C   0  0  0  0  0  0  0  0  0  0  0  0
   -3.7400   19.0353   15.5107 Cl  0  0  0  0  0  0  0  0  0  0  0  0
   -1.2156   19.3954   16.3925 C   0  0  0  0  0  0  0  0  0  0  0  0
   -0.1379   19.1224   17.2415 C   0  0  0  0  0  0  0  0  0  0  0  0
    4.6291   19.5724   20.8164 C   0  0  0  0  0  0  0  0  0  0  0  0
    4.1636   20.5173   20.1857 O   0  0  0  0  0  0  0  0  0  0  0  0
    4.0222   18.3282   20.9158 N   0  0  0  0  0  0  0  0  0  0  0  0
    4.4879   17.6128   21.4534 H   0  0  0  0  0  0  0  0  0  0  0  0
    6.6303   21.9201   20.6026 C   0  0  0  0  0  0  0  0  0  0  0  0
    6.7794   20.7389   21.4204 N   0  0  0  0  0  0  0  0  0  0  0  0
    7.8490   20.4863   22.2302 C   0  0  0  0  0  0  0  0  0  0  0  0
    7.7192   19.3412   22.8547 N   0  0  0  0  0  0  0  0  0  0  0  0
    6.5181   18.8383   22.4302 C   0  0  0  0  0  0  0  0  0  0  0  0
    5.8926   19.6827   21.5255 C   0  0  0  0  0  0  0  0  0  0  0  0
    2.5478   15.7156   21.3448 C   0  0  0  0  0  0  0  0  0  0  0  0
    1.5415   14.5781   21.2786 C   0  0  0  0  0  0  0  0  0  0  0  0
    0.6560   14.6642   22.3916 O   0  0  0  0  0  0  0  0  0  0  0  0
   -0.0344   13.9892   22.2609 H   0  0  0  0  0  0  0  0  0  0  0  0
 17 18  1  0  0  0
 18 19  1  0  0  0
 19 20  2  0  0  0
 20 21  1  0  0  0
 21 22  2  0  0  0
 22 13  1  0  0  0
 13 14  2  0  0  0
 13 15  1  0  0  0
 15  1  1  0  0  0
  1  2  2  0  0  0
  2  3  1  0  0  0
  3  6  1  0  0  0
  6  7  1  0  0  0
  7  8  2  0  0  0
  8  9  1  0  0  0
  9 10  1  0  0  0
  9 11  2  0  0  0
 11 12  1  0  0  0
  3  4  2  0  0  0
  4  5  1  0  0  0
  5 23  1  0  0  0
 23 24  1  0  0  0
 24 25  1  0  0  0
 22 18  1  0  0  0
  5  1  1  0  0  0
 12  6  2  0  0  0
 15 16  1  0  0  0
 25 26  1  0  0  0
M  END
> <minimizedAffinity>
-4.93839

$$$$
OCNT-2313122


 30 32  0  0  0  0  0  0  0  0999 V2000
   -0.1453   19.2799   19.8117 O   0  0  0  0  0  0  0  0  0  0  0  0
    0.4655   18.7288   18.9006 C   0  0  0  0  0  0  0  0  0  0  0  0
    1.8329   18.8339   18.7366 N   0  0  0  0  0  0  0  0  0  0  0  0
    2.2409   18.1378   18.1197 H   0  0  0  0  0  0  0  0  0  0  0  0
   -0.2084   17.8517   17.8151 C   0  0  0  0  0  0  0  0  0  0  0  0
   -1.5125   18.3434   17.4763 O   0  0  0  0  0  0  0  0  0  0  0  0
   -2.1494   17.8375   18.0122 H   0  0  0  0  0  0  0  0  0  0  0  0
   -0.3303   16.3881   18.1980 C   0  0  0  0  0  0  0  0  0  0  0  0
   -0.7956   15.4203   17.2950 C   0  0  0  0  0  0  0  0  0  0  0  0
   -0.8535   14.0750   17.6611 C   0  0  0  0  0  0  0  0  0  0  0  0
   -0.4376   13.6752   18.9302 C   0  0  0  0  0  0  0  0  0  0  0  0
    0.0387   14.6185   19.8513 C   0  0  0  0  0  0  0  0  0  0  0  0
    0.1001   15.9695   19.4691 C   0  0  0  0  0  0  0  0  0  0  0  0
    0.5180   14.1841   21.2149 C   0  0  0  0  0  0  0  0  0  0  0  0
    0.7772   15.2294   22.0493 F   0  0  0  0  0  0  0  0  0  0  0  0
    1.6717   13.4635   21.1500 F   0  0  0  0  0  0  0  0  0  0  0  0
   -0.3779   13.3968   21.8734 F   0  0  0  0  0  0  0  0  0  0  0  0
    2.6590   19.4030   19.7712 C   0  0  0  0  0  0  0  0  0  0  0  0
    3.4027   18.3284   20.5279 C   0  0  0  0  0  0  0  0  0  0  0  0
    2.7748   17.0819   20.7111 C   0  0  0  0  0  0  0  0  0  0  0  0
    3.4033   16.0588   21.4198 C   0  0  0  0  0  0  0  0  0  0  0  0
    4.6654   16.2667   21.9638 C   0  0  0  0  0  0  0  0  0  0  0  0
    5.2972   17.4999   21.8024 C   0  0  0  0  0  0  0  0  0  0  0  0
    4.6825   18.5468   21.0903 C   0  0  0  0  0  0  0  0  0  0  0  0
    5.3910   19.8279   20.9688 C   0  0  0  0  0  0  0  0  0  0  0  0
    4.9028   20.8398   20.1357 C   0  0  0  0  0  0  0  0  0  0  0  0
    5.6075   22.0292   20.0479 C   0  0  0  0  0  0  0  0  0  0  0  0
    6.7455   22.2782   20.7284 N   0  0  0  0  0  0  0  0  0  0  0  0
    7.1969   21.2954   21.5357 C   0  0  0  0  0  0  0  0  0  0  0  0
    6.5638   20.0727   21.6891 C   0  0  0  0  0  0  0  0  0  0  0  0
  1  2  2  0  0  0
  2  3  1  0  0  0
  3 18  1  0  0  0
 18 19  1  0  0  0
 19 20  2  0  0  0
 20 21  1  0  0  0
 21 22  2  0  0  0
 22 23  1  0  0  0
 23 24  2  0  0  0
 24 25  1  0  0  0
 25 26  2  0  0  0
 26 27  1  0  0  0
 27 28  2  0  0  0
 28 29  1  0  0  0
 29 30  2  0  0  0
  2  5  1  0  0  0
  5  6  1  0  0  0
  5  8  1  0  0  0
  8  9  2  0  0  0
  9 10  1  0  0  0
 10 11  2  0  0  0
 11 12  1  0  0  0
 12 14  1  0  0  0
 14 15  1  0  0  0
 14 16  1  0  0  0
 14 17  1  0  0  0
 12 13  2  0  0  0
 24 19  1  0  0  0
 30 25  1  0  0  0
 13  8  1  0  0  0
  3  4  1  0  0  0
  6  7  1  0  0  0
M  END
> <minimizedAffinity>
-11.17910

$$$$
OCNT-2313136


 24 26  0  0  0  0  0  0  0  0999 V2000
    4.1064   17.9020   21.3406 C   0  0  0  0  0  0  0  0  0  0  0  0
    3.9501   17.2106   22.4806 N   0  0  0  0  0  0  0  0  0  0  0  0
    2.9605   16.3457   22.2199 N   0  0  0  0  0  0  0  0  0  0  0  0
    2.5013   16.3783   20.9320 C   0  0  0  0  0  0  0  0  0  0  0  0
    3.2049   17.4145   20.3505 C   0  0  0  0  0  0  0  0  0  0  0  0
    2.6333   15.7345   22.9619 H   0  0  0  0  0  0  0  0  0  0  0  0
    1.4476   15.4877   20.5059 C   0  0  0  0  0  0  0  0  0  0  0  0
    1.4772   14.3102   20.8652 O   0  0  0  0  0  0  0  0  0  0  0  0
    0.4200   15.9638   19.6922 N   0  0  0  0  0  0  0  0  0  0  0  0
   -0.6925   15.0750   19.3813 C   0  0  0  0  0  0  0  0  0  0  0  0
   -0.8072   14.7959   17.8733 C   0  0  0  0  0  0  0  0  0  0  0  0
   -0.4956   15.9120   16.9714 N   0  0  0  0  0  0  0  0  0  0  0  0
   -0.4084   17.2297   17.6195 C   0  0  0  0  0  0  0  0  0  0  0  0
   -1.8165   17.7858   17.9100 C   0  0  0  0  0  0  0  0  0  0  0  0
    0.2536   18.1758   16.5966 C   0  0  0  0  0  0  0  0  0  0  0  0
    0.4809   17.2051   18.9086 C   0  0  0  0  0  0  0  0  0  0  0  0
   -1.1364   15.9224   16.1796 H   0  0  0  0  0  0  0  0  0  0  0  0
    7.9653   22.2014   20.8440 C   0  0  0  0  0  0  0  0  0  0  0  0
    6.9554   21.1028   20.9938 C   0  0  0  0  0  0  0  0  0  0  0  0
    7.1371   20.0944   21.9452 C   0  0  0  0  0  0  0  0  0  0  0  0
    6.2107   19.0510   22.0633 C   0  0  0  0  0  0  0  0  0  0  0  0
    5.0885   18.9883   21.2254 C   0  0  0  0  0  0  0  0  0  0  0  0
    4.9241   19.9944   20.2619 C   0  0  0  0  0  0  0  0  0  0  0  0
    5.8482   21.0378   20.1434 C   0  0  0  0  0  0  0  0  0  0  0  0
 18 19  1  0  0  0
 19 20  1  0  0  0
 20 21  2  0  0  0
 21 22  1  0  0  0
 22  1  1  0  0  0
  1  2  2  0  0  0
  2  3  1  0  0  0
  3  4  1  0  0  0
  4  7  1  0  0  0
  7  8  2  0  0  0
  7  9  1  0  0  0
  9 10  1  0  0  0
 10 11  1  0  0  0
 11 12  1  0  0  0
 12 13  1  0  0  0
 13 14  1  0  0  0
 13 15  1  0  0  0
 13 16  1  0  0  0
  4  5  2  0  0  0
 22 23  2  0  0  0
 23 24  1  0  0  0
 24 19  2  0  0  0
  5  1  1  0  0  0
 16  9  1  0  0  0
  3  6  1  0  0  0
 12 17  1  0  0  0
M  END
> <minimizedAffinity>
-8.18859

$$$$
OCNT-2313141


 23 25  0  0  0  0  0  0  0  0999 V2000
    1.8171   20.1304   18.7308 C   0  0  0  0  0  0  0  0  0  0  0  0
    1.2084   18.7857   18.8308 C   0  0  0  0  0  0  0  0  0  0  0  0
    0.1505   18.4481   18.0699 N   0  0  0  0  0  0  0  0  0  0  0  0
   -0.1237   17.1714   18.4376 N   0  0  0  0  0  0  0  0  0  0  0  0
   -1.2141   16.4630   17.8120 C   0  0  0  0  0  0  0  0  0  0  0  0
    0.7142   16.7023   19.4015 C   0  0  0  0  0  0  0  0  0  0  0  0
    1.5743   17.7198   19.6671 C   0  0  0  0  0  0  0  0  0  0  0  0
    2.5858   17.6385   20.6166 N   0  0  0  0  0  0  0  0  0  0  0  0
    2.6508   16.4857   21.2371 C   0  0  0  0  0  0  0  0  0  0  0  0
    1.8278   15.3819   20.9741 N   0  0  0  0  0  0  0  0  0  0  0  0
    2.0505   14.0959   21.6101 C   0  0  0  0  0  0  0  0  0  0  0  0
    0.7770   15.4443   20.0526 C   0  0  0  0  0  0  0  0  0  0  0  0
   -0.0034   14.5233   19.8286 O   0  0  0  0  0  0  0  0  0  0  0  0
    3.6291   16.3967   22.2014 N   0  0  0  0  0  0  0  0  0  0  0  0
    3.6431   15.4214   22.5008 H   0  0  0  0  0  0  0  0  0  0  0  0
    4.9999   16.7672   21.8467 C   0  0  0  0  0  0  0  0  0  0  0  0
    5.3742   18.0602   22.5718 C   0  0  0  0  0  0  0  0  0  0  0  0
    5.8280   19.1600   21.6107 C   0  0  0  0  0  0  0  0  0  0  0  0
    6.9077   20.0584   22.2131 C   0  0  0  0  0  0  0  0  0  0  0  0
    6.8597   21.2856   21.3176 C   0  0  0  0  0  0  0  0  0  0  0  0
    5.3617   21.5276   21.1369 C   0  0  0  0  0  0  0  0  0  0  0  0
    5.0362   22.2917   19.8637 C   0  0  0  0  0  0  0  0  0  0  0  0
    4.7148   20.1335   21.1905 C   0  0  0  0  0  0  0  0  0  0  0  0
  1  2  1  0  0  0
  2  3  2  0  0  0
  3  4  1  0  0  0
  4  5  1  0  0  0
  4  6  1  0  0  0
  6  7  2  0  0  0
  7  8  1  0  0  0
  8  9  2  0  0  0
  9 14  1  0  0  0
 14 16  1  0  0  0
 16 17  1  0  0  0
 17 18  1  0  0  0
 18 19  1  0  0  0
 19 20  1  0  0  0
 20 21  1  0  0  0
 21 22  1  0  0  0
 21 23  1  0  0  0
  9 10  1  0  0  0
 10 11  1  0  0  0
 10 12  1  0  0  0
 12 13  2  0  0  0
  7  2  1  0  0  0
 23 18  1  0  0  0
 12  6  1  0  0  0
 14 15  1  0  0  0
M  END
> <minimizedAffinity>
-9.65261

$$$$
OCNT-2313145


 26 29  0  0  0  0  0  0  0  0999 V2000
    4.6979   21.8265   20.6030 N   0  0  0  0  0  0  0  0  0  0  0  0
    3.2449   21.5488   20.7275 C   0  0  0  0  0  0  0  0  0  0  0  0
    2.6334   20.9927   19.4288 C   0  0  0  0  0  0  0  0  0  0  0  0
    3.1970   19.6565   19.1309 N   0  0  0  0  0  0  0  0  0  0  0  0
    4.6443   19.5481   19.4265 C   0  0  0  0  0  0  0  0  0  0  0  0
    5.3266   20.9230   19.6143 C   0  0  0  0  0  0  0  0  0  0  0  0
    2.4118   18.5335   19.3951 C   0  0  0  0  0  0  0  0  0  0  0  0
    2.8045   17.6754   20.3045 N   0  0  0  0  0  0  0  0  0  0  0  0
    2.0558   16.5093   20.5713 C   0  0  0  0  0  0  0  0  0  0  0  0
    2.5223   15.6248   21.5441 C   0  0  0  0  0  0  0  0  0  0  0  0
    1.8196   14.4520   21.8359 C   0  0  0  0  0  0  0  0  0  0  0  0
    0.6387   14.1520   21.1539 C   0  0  0  0  0  0  0  0  0  0  0  0
    0.1519   15.0209   20.1772 C   0  0  0  0  0  0  0  0  0  0  0  0
    0.8675   16.1879   19.8981 C   0  0  0  0  0  0  0  0  0  0  0  0
    0.4528   17.1235   18.9446 N   0  0  0  0  0  0  0  0  0  0  0  0
   -0.6457   17.1486   18.1298 C   0  0  0  0  0  0  0  0  0  0  0  0
   -0.6887   18.2470   17.4050 N   0  0  0  0  0  0  0  0  0  0  0  0
    0.4283   18.9570   17.7713 C   0  0  0  0  0  0  0  0  0  0  0  0
    1.1753   18.2636   18.6974 C   0  0  0  0  0  0  0  0  0  0  0  0
    5.3572   21.8049   21.9292 C   0  0  0  0  0  0  0  0  0  0  0  0
    6.8197   21.3021   21.9684 C   0  0  0  0  0  0  0  0  0  0  0  0
    7.4793   21.7751   20.8742 F   0  0  0  0  0  0  0  0  0  0  0  0
    7.4201   21.8737   23.0529 F   0  0  0  0  0  0  0  0  0  0  0  0
    5.7771   19.1374   22.5096 O   0  0  0  0  0  0  0  0  0  0  0  0
    6.9717   19.7802   22.0469 C   0  0  0  0  0  0  0  0  0  0  0  0
    5.9783   18.1934   22.6219 H   0  0  0  0  0  0  0  0  0  0  0  0
 24 25  1  0  0  0
 25 21  1  0  0  0
 21 22  1  0  0  0
 21 23  1  0  0  0
 21 20  1  0  0  0
 20  1  1  0  0  0
  1  2  1  0  0  0
  2  3  1  0  0  0
  3  4  1  0  0  0
  4  7  1  0  0  0
  7  8  2  0  0  0
  8  9  1  0  0  0
  9 10  2  0  0  0
 10 11  1  0  0  0
 11 12  2  0  0  0
 12 13  1  0  0  0
 13 14  2  0  0  0
 14 15  1  0  0  0
 15 16  1  0  0  0
 16 17  2  0  0  0
 17 18  1  0  0  0
 18 19  2  0  0  0
  4  5  1  0  0  0
  5  6  1  0  0  0
  6  1  1  0  0  0
 19  7  1  0  0  0
 14  9  1  0  0  0
 19 15  1  0  0  0
 24 26  1  0  0  0
M  END
> <minimizedAffinity>
-9.15640

$$$$
OCNT-2313147


 29 32  0  0  0  0  0  0  0  0999 V2000
    1.2194   18.4386   19.8476 N   0  0  0  0  0  0  0  0  0  0  0  0
    2.3518   17.7745   20.2375 C   0  0  0  0  0  0  0  0  0  0  0  0
    2.3296   16.6072   20.6162 O   0  0  0  0  0  0  0  0  0  0  0  0
    3.5191   18.5301   20.1877 N   0  0  0  0  0  0  0  0  0  0  0  0
    4.7567   17.8792   20.6145 C   0  0  0  0  0  0  0  0  0  0  0  0
    5.0887   18.1344   22.0826 C   0  0  0  0  0  0  0  0  0  0  0  0
    4.9022   19.5852   22.5172 C   0  0  0  0  0  0  0  0  0  0  0  0
    5.4878   20.5402   21.5788 N   0  0  0  0  0  0  0  0  0  0  0  0
    6.7407   21.0722   21.8808 C   0  0  0  0  0  0  0  0  0  0  0  0
    7.3686   20.8096   22.8999 O   0  0  0  0  0  0  0  0  0  0  0  0
    4.8548   20.7247   20.2637 C   0  0  0  0  0  0  0  0  0  0  0  0
    3.5182   19.9950   20.0273 C   0  0  0  0  0  0  0  0  0  0  0  0
    1.3411   19.2251   19.2307 H   0  0  0  0  0  0  0  0  0  0  0  0
    7.3415   22.0013   20.8808 C   0  0  0  0  0  0  0  0  0  0  0  0
    7.9291   21.4433   19.6010 C   0  0  0  0  0  0  0  0  0  0  0  0
    8.8348   22.0185   20.6454 C   0  0  0  0  0  0  0  0  0  0  0  0
   -0.0766   17.7844   19.7647 C   0  0  0  0  0  0  0  0  0  0  0  0
   -0.4139   17.5165   18.2839 C   0  0  0  0  0  0  0  0  0  0  0  0
    0.5841   18.2509   17.3050 C   0  0  0  0  0  0  0  0  0  0  0  0
   -0.6265   18.5981   16.4215 C   0  0  0  0  0  0  0  0  0  0  0  0
   -1.4896   18.5075   17.6901 C   0  0  0  0  0  0  0  0  0  0  0  0
   -0.3222   14.9337   19.0075 C   0  0  0  0  0  0  0  0  0  0  0  0
   -0.5208   13.5678   18.7623 C   0  0  0  0  0  0  0  0  0  0  0  0
   -1.0041   13.1345   17.5297 C   0  0  0  0  0  0  0  0  0  0  0  0
   -1.2991   14.0618   16.5412 C   0  0  0  0  0  0  0  0  0  0  0  0
   -1.1058   15.4223   16.7858 C   0  0  0  0  0  0  0  0  0  0  0  0
   -0.6071   15.9086   18.0168 C   0  0  0  0  0  0  0  0  0  0  0  0
    0.3251   14.5054   21.2660 C   0  0  0  0  0  0  0  0  0  0  0  0
    0.1123   15.4360   20.2104 O   0  0  0  0  0  0  0  0  0  0  0  0
 28 29  1  0  0  0
 29 22  1  0  0  0
 22 23  2  0  0  0
 23 24  1  0  0  0
 24 25  2  0  0  0
 25 26  1  0  0  0
 26 27  2  0  0  0
 27 18  1  0  0  0
 18 17  1  0  0  0
 17  1  1  0  0  0
  1  2  1  0  0  0
  2  3  2  0  0  0
  2  4  1  0  0  0
  4  5  1  0  0  0
  5  6  1  0  0  0
  6  7  1  0  0  0
  7  8  1  0  0  0
  8  9  1  0  0  0
  9 10  2  0  0  0
  9 14  1  0  0  0
 14 15  1  0  0  0
 15 16  1  0  0  0
  8 11  1  0  0  0
 11 12  1  0  0  0
 18 19  1  0  0  0
 19 20  1  0  0  0
 20 21  1  0  0  0
 27 22  1  0  0  0
 21 18  1  0  0  0
 12  4  1  0  0  0
 16 14  1  0  0  0
  1 13  1  0  0  0
M  END
> <minimizedAffinity>
-5.55237

$$$$
OCNT-2313161


 23 25  0  0  0  0  0  0  0  0999 V2000
    2.8024   17.4472   21.3523 N   0  0  0  0  0  0  0  0  0  0  0  0
    2.5072   18.2865   21.8451 H   0  0  0  0  0  0  0  0  0  0  0  0
    1.8157   16.9947   20.4788 C   0  0  0  0  0  0  0  0  0  0  0  0
    1.4236   15.6870   20.4911 N   0  0  0  0  0  0  0  0  0  0  0  0
    0.4439   15.2593   19.6592 C   0  0  0  0  0  0  0  0  0  0  0  0
   -0.2398   16.0507   18.7486 C   0  0  0  0  0  0  0  0  0  0  0  0
    0.1618   17.3825   18.7402 C   0  0  0  0  0  0  0  0  0  0  0  0
    1.1609   17.8676   19.5787 C   0  0  0  0  0  0  0  0  0  0  0  0
    1.3370   19.2113   19.3465 N   0  0  0  0  0  0  0  0  0  0  0  0
    0.4846   19.5828   18.4001 N   0  0  0  0  0  0  0  0  0  0  0  0
   -0.2156   18.4928   18.0360 N   0  0  0  0  0  0  0  0  0  0  0  0
   -1.2245   18.6114   17.0176 C   0  0  0  0  0  0  0  0  0  0  0  0
    4.1803   17.4758   20.8610 C   0  0  0  0  0  0  0  0  0  0  0  0
    5.1723   18.0254   21.9236 C   0  0  0  0  0  0  0  0  0  0  0  0
    4.4973   18.0791   23.3137 C   0  0  0  0  0  0  0  0  0  0  0  0
    6.3998   17.0957   22.0430 C   0  0  0  0  0  0  0  0  0  0  0  0
    3.7419   22.1019   19.6363 C   0  0  0  0  0  0  0  0  0  0  0  0
    4.8297   21.3958   20.3874 C   0  0  0  0  0  0  0  0  0  0  0  0
    6.0383   22.0317   20.6285 C   0  0  0  0  0  0  0  0  0  0  0  0
    7.0204   21.3418   21.3256 C   0  0  0  0  0  0  0  0  0  0  0  0
    6.7695   20.0434   21.7638 C   0  0  0  0  0  0  0  0  0  0  0  0
    5.5323   19.4581   21.4987 C   0  0  0  0  0  0  0  0  0  0  0  0
    4.5754   20.1328   20.8049 N   0  0  0  0  0  0  0  0  0  0  0  0
 17 18  1  0  0  0
 18 19  1  0  0  0
 19 20  2  0  0  0
 20 21  1  0  0  0
 21 22  2  0  0  0
 22 14  1  0  0  0
 14 15  1  0  0  0
 14 16  1  0  0  0
 14 13  1  0  0  0
 13  1  1  0  0  0
  1  3  1  0  0  0
  3  4  1  0  0  0
  4  5  2  0  0  0
  5  6  1  0  0  0
  6  7  2  0  0  0
  7  8  1  0  0  0
  8  9  1  0  0  0
  9 10  2  0  0  0
 10 11  1  0  0  0
 11 12  1  0  0  0
 22 23  1  0  0  0
 23 18  2  0  0  0
  8  3  2  0  0  0
 11  7  1  0  0  0
  1  2  1  0  0  0
M  END
> <minimizedAffinity>
-9.70430

$$$$
OCNT-2313164


 28 31  0  0  0  0  0  0  0  0999 V2000
    1.2005   18.0239   19.6826 O   0  0  0  0  0  0  0  0  0  0  0  0
    1.7956   17.0891   20.2197 C   0  0  0  0  0  0  0  0  0  0  0  0
    3.1622   17.1870   20.5151 N   0  0  0  0  0  0  0  0  0  0  0  0
    3.8405   16.3579   21.5159 C   0  0  0  0  0  0  0  0  0  0  0  0
    5.0417   17.0617   22.1532 C   0  0  0  0  0  0  0  0  0  0  0  0
    4.7194   18.5225   22.4707 C   0  0  0  0  0  0  0  0  0  0  0  0
    4.2233   19.3027   21.2276 C   0  0  0  0  0  0  0  0  0  0  0  0
    3.8987   18.3609   20.0514 C   0  0  0  0  0  0  0  0  0  0  0  0
    5.1867   20.3939   20.7926 C   0  0  0  0  0  0  0  0  0  0  0  0
    6.5310   20.3390   21.1955 C   0  0  0  0  0  0  0  0  0  0  0  0
    7.4271   21.3370   20.8142 C   0  0  0  0  0  0  0  0  0  0  0  0
    8.7184   21.2219   21.2371 O   0  0  0  0  0  0  0  0  0  0  0  0
    7.0135   22.4073   20.0333 C   0  0  0  0  0  0  0  0  0  0  0  0
    5.6835   22.4665   19.6380 C   0  0  0  0  0  0  0  0  0  0  0  0
    5.2673   23.4945   18.8862 F   0  0  0  0  0  0  0  0  0  0  0  0
    4.7713   21.4801   20.0077 C   0  0  0  0  0  0  0  0  0  0  0  0
    9.2266   21.9832   20.9111 H   0  0  0  0  0  0  0  0  0  0  0  0
    1.0801   15.8916   20.5995 C   0  0  0  0  0  0  0  0  0  0  0  0
    0.5833   15.5389   21.8392 C   0  0  0  0  0  0  0  0  0  0  0  0
   -0.1191   14.2820   21.7852 C   0  0  0  0  0  0  0  0  0  0  0  0
   -0.1844   13.7370   20.5637 N   0  0  0  0  0  0  0  0  0  0  0  0
    0.5511   14.7338   19.4701 S   0  0  0  0  0  0  0  0  0  0  0  0
   -0.7420   13.6168   22.9372 C   0  0  0  0  0  0  0  0  0  0  0  0
   -0.9501   14.3107   24.1274 C   0  0  0  0  0  0  0  0  0  0  0  0
   -1.5311   13.6388   25.2005 C   0  0  0  0  0  0  0  0  0  0  0  0
   -1.8838   12.3022   25.0560 C   0  0  0  0  0  0  0  0  0  0  0  0
   -1.6390   11.6875   23.8395 C   0  0  0  0  0  0  0  0  0  0  0  0
   -1.0732   12.3098   22.7835 N   0  0  0  0  0  0  0  0  0  0  0  0
  1  2  2  0  0  0
  2 18  1  0  0  0
 18 19  2  0  0  0
 19 20  1  0  0  0
 20 23  1  0  0  0
 23 24  2  0  0  0
 24 25  1  0  0  0
 25 26  2  0  0  0
 26 27  1  0  0  0
 27 28  2  0  0  0
 20 21  2  0  0  0
 21 22  1  0  0  0
  2  3  1  0  0  0
  3  4  1  0  0  0
  4  5  1  0  0  0
  5  6  1  0  0  0
  6  7  1  0  0  0
  7  9  1  0  0  0
  9 10  1  0  0  0
 10 11  2  0  0  0
 11 12  1  0  0  0
 11 13  1  0  0  0
 13 14  2  0  0  0
 14 15  1  0  0  0
 14 16  1  0  0  0
  7  8  1  0  0  0
 22 18  1  0  0  0
  8  3  1  0  0  0
 28 23  1  0  0  0
 16  9  2  0  0  0
 12 17  1  0  0  0
M  END
> <minimizedAffinity>
-0.45898

$$$$
OCNT-2313177


 23 25  0  0  0  0  0  0  0  0999 V2000
    1.2663   16.2456   20.1404 C   0  0  0  0  0  0  0  0  0  0  0  0
    1.0188   14.9552   20.6145 C   0  0  0  0  0  0  0  0  0  0  0  0
    1.8222   14.2738   21.4692 N   0  0  0  0  0  0  0  0  0  0  0  0
    2.9453   14.9092   21.8799 C   0  0  0  0  0  0  0  0  0  0  0  0
    3.2901   16.1949   21.4899 C   0  0  0  0  0  0  0  0  0  0  0  0
    2.4400   16.8602   20.5998 C   0  0  0  0  0  0  0  0  0  0  0  0
   -2.3713   18.9069   16.4816 C   0  0  0  0  0  0  0  0  0  0  0  0
   -1.4113   18.2213   17.4076 C   0  0  0  0  0  0  0  0  0  0  0  0
   -1.3265   16.8268   17.4365 C   0  0  0  0  0  0  0  0  0  0  0  0
   -0.4527   16.1868   18.3218 C   0  0  0  0  0  0  0  0  0  0  0  0
    0.3500   16.9214   19.2096 C   0  0  0  0  0  0  0  0  0  0  0  0
    0.2452   18.3216   19.1800 C   0  0  0  0  0  0  0  0  0  0  0  0
   -0.6273   18.9639   18.2948 C   0  0  0  0  0  0  0  0  0  0  0  0
    4.5284   16.8633   21.9527 C   0  0  0  0  0  0  0  0  0  0  0  0
    5.6243   16.4345   21.6074 O   0  0  0  0  0  0  0  0  0  0  0  0
    4.3781   17.9746   22.7447 N   0  0  0  0  0  0  0  0  0  0  0  0
    3.4890   18.4573   22.8200 H   0  0  0  0  0  0  0  0  0  0  0  0
    5.5243   18.7604   23.1405 C   0  0  0  0  0  0  0  0  0  0  0  0
    5.7570   19.8181   22.1075 C   0  0  0  0  0  0  0  0  0  0  0  0
    6.9236   20.5384   21.9242 C   0  0  0  0  0  0  0  0  0  0  0  0
    6.7442   21.6399   20.6230 S   0  0  0  0  0  0  0  0  0  0  0  0
    5.1393   21.0835   20.3963 C   0  0  0  0  0  0  0  0  0  0  0  0
    4.7297   20.1412   21.2173 N   0  0  0  0  0  0  0  0  0  0  0  0
  7  8  1  0  0  0
  8  9  1  0  0  0
  9 10  2  0  0  0
 10 11  1  0  0  0
 11  1  1  0  0  0
  1  2  2  0  0  0
  2  3  1  0  0  0
  3  4  2  0  0  0
  4  5  1  0  0  0
  5 14  1  0  0  0
 14 15  2  0  0  0
 14 16  1  0  0  0
 16 18  1  0  0  0
 18 19  1  0  0  0
 19 20  2  0  0  0
 20 21  1  0  0  0
 21 22  1  0  0  0
 22 23  2  0  0  0
  5  6  2  0  0  0
 11 12  2  0  0  0
 12 13  1  0  0  0
 13  8  2  0  0  0
  6  1  1  0  0  0
 23 19  1  0  0  0
 16 17  1  0  0  0
M  END
> <minimizedAffinity>
-9.64423

$$$$
OCNT-2313183


 23 25  0  0  0  0  0  0  0  0999 V2000
    2.2088   17.4961   20.0876 C   0  0  0  0  0  0  0  0  0  0  0  0
    1.9702   16.2381   20.6524 C   0  0  0  0  0  0  0  0  0  0  0  0
    0.8565   15.4886   20.2752 C   0  0  0  0  0  0  0  0  0  0  0  0
   -0.0345   15.9915   19.3274 C   0  0  0  0  0  0  0  0  0  0  0  0
    0.1796   17.2500   18.7474 C   0  0  0  0  0  0  0  0  0  0  0  0
    1.3126   17.9901   19.1349 C   0  0  0  0  0  0  0  0  0  0  0  0
   -0.7351   17.8043   17.7478 C   0  0  0  0  0  0  0  0  0  0  0  0
   -0.4549   18.1194   16.4959 N   0  0  0  0  0  0  0  0  0  0  0  0
   -1.5914   18.6159   15.8992 N   0  0  0  0  0  0  0  0  0  0  0  0
   -2.5423   18.6092   16.7995 C   0  0  0  0  0  0  0  0  0  0  0  0
   -2.0555   18.1126   17.9678 N   0  0  0  0  0  0  0  0  0  0  0  0
   -2.5581   18.0152   18.8352 H   0  0  0  0  0  0  0  0  0  0  0  0
    3.7599   19.4723   20.2382 C   0  0  0  0  0  0  0  0  0  0  0  0
    3.1476   20.2668   19.5336 O   0  0  0  0  0  0  0  0  0  0  0  0
    3.3566   18.1802   20.5277 N   0  0  0  0  0  0  0  0  0  0  0  0
    3.9868   17.6810   21.1464 H   0  0  0  0  0  0  0  0  0  0  0  0
    7.9444   21.8651   20.6148 C   0  0  0  0  0  0  0  0  0  0  0  0
    6.9341   20.8915   21.0728 C   0  0  0  0  0  0  0  0  0  0  0  0
    6.8509   20.0543   22.1615 C   0  0  0  0  0  0  0  0  0  0  0  0
    5.6181   19.3525   22.0467 C   0  0  0  0  0  0  0  0  0  0  0  0
    5.0775   18.3352   22.9831 C   0  0  0  0  0  0  0  0  0  0  0  0
    5.0221   19.8132   20.8806 C   0  0  0  0  0  0  0  0  0  0  0  0
    5.8308   20.7529   20.2896 O   0  0  0  0  0  0  0  0  0  0  0  0
 17 18  1  0  0  0
 18 19  2  0  0  0
 19 20  1  0  0  0
 20 21  1  0  0  0
 20 22  2  0  0  0
 22 13  1  0  0  0
 13 14  2  0  0  0
 13 15  1  0  0  0
 15  1  1  0  0  0
  1  2  2  0  0  0
  2  3  1  0  0  0
  3  4  2  0  0  0
  4  5  1  0  0  0
  5  7  1  0  0  0
  7  8  2  0  0  0
  8  9  1  0  0  0
  9 10  2  0  0  0
 10 11  1  0  0  0
  5  6  2  0  0  0
 22 23  1  0  0  0
 23 18  1  0  0  0
  6  1  1  0  0  0
 11  7  1  0  0  0
 15 16  1  0  0  0
 11 12  1  0  0  0
M  END
> <minimizedAffinity>
-10.32540

$$$$
OCNT-2313185


 22 25  0  0  0  0  0  0  0  0999 V2000
    1.9553   18.6203   19.8557 C   0  0  0  0  0  0  0  0  0  0  0  0
    1.8481   19.7734   19.1563 N   0  0  0  0  0  0  0  0  0  0  0  0
    0.9768   19.8407   18.1365 C   0  0  0  0  0  0  0  0  0  0  0  0
    0.1582   18.8843   17.6926 N   0  0  0  0  0  0  0  0  0  0  0  0
    0.2887   17.7468   18.3946 C   0  0  0  0  0  0  0  0  0  0  0  0
    1.1478   17.5297   19.4729 C   0  0  0  0  0  0  0  0  0  0  0  0
    0.9894   16.1930   19.9369 C   0  0  0  0  0  0  0  0  0  0  0  0
    0.0634   15.4906   19.2149 C   0  0  0  0  0  0  0  0  0  0  0  0
   -0.1167   14.0883   19.6541 C   0  0  0  0  0  0  0  0  0  0  0  0
    0.6239   14.1128   21.0250 C   0  0  0  0  0  0  0  0  0  0  0  0
    1.5835   15.3441   21.0011 C   0  0  0  0  0  0  0  0  0  0  0  0
   -0.6561   16.3655   17.9881 S   0  0  0  0  0  0  0  0  0  0  0  0
    2.8723   18.5307   20.8969 N   0  0  0  0  0  0  0  0  0  0  0  0
    2.7956   19.2940   21.5656 H   0  0  0  0  0  0  0  0  0  0  0  0
    4.7726   17.0451   21.2503 C   0  0  0  0  0  0  0  0  0  0  0  0
    4.2803   18.2989   20.5293 C   0  0  0  0  0  0  0  0  0  0  0  0
    5.1443   19.5072   20.9236 C   0  0  0  0  0  0  0  0  0  0  0  0
    4.8870   20.6954   20.3181 N   0  0  0  0  0  0  0  0  0  0  0  0
    5.6691   21.7316   20.6747 C   0  0  0  0  0  0  0  0  0  0  0  0
    6.6879   21.6349   21.5913 C   0  0  0  0  0  0  0  0  0  0  0  0
    6.8754   20.3904   22.1428 C   0  0  0  0  0  0  0  0  0  0  0  0
    6.1272   19.3162   21.8295 N   0  0  0  0  0  0  0  0  0  0  0  0
 15 16  1  0  0  0
 16 13  1  0  0  0
 13  1  1  0  0  0
  1  2  1  0  0  0
  2  3  2  0  0  0
  3  4  1  0  0  0
  4  5  2  0  0  0
  5  6  1  0  0  0
  6  7  1  0  0  0
  7  8  2  0  0  0
  8  9  1  0  0  0
  9 10  1  0  0  0
 10 11  1  0  0  0
  8 12  1  0  0  0
 16 17  1  0  0  0
 17 18  2  0  0  0
 18 19  1  0  0  0
 19 20  2  0  0  0
 20 21  1  0  0  0
 21 22  2  0  0  0
  6  1  2  0  0  0
 11  7  1  0  0  0
 22 17  1  0  0  0
 12  5  1  0  0  0
 13 14  1  0  0  0
M  END
> <minimizedAffinity>
-10.91589

$$$$
