OCNT-2310344


 23 25  0  0  0  0  0  0  0  0999 V2000
    5.1786   18.0586   21.6799 C   0  0  0  0  0  0  0  0  0  0  0  0
    5.8662   16.9406   22.0962 C   0  0  0  0  0  0  0  0  0  0  0  0
    4.9884   15.8866   22.1036 N   0  0  0  0  0  0  0  0  0  0  0  0
    3.7305   16.3043   21.7227 C   0  0  0  0  0  0  0  0  0  0  0  0
    3.8432   17.6560   21.4314 C   0  0  0  0  0  0  0  0  0  0  0  0
    5.2363   14.9309   22.3204 H   0  0  0  0  0  0  0  0  0  0  0  0
    5.1460   22.5916   19.7815 C   0  0  0  0  0  0  0  0  0  0  0  0
    5.6018   21.4408   20.6067 C   0  0  0  0  0  0  0  0  0  0  0  0
    5.0075   20.2678   20.6387 N   0  0  0  0  0  0  0  0  0  0  0  0
    5.6816   19.4218   21.5015 C   0  0  0  0  0  0  0  0  0  0  0  0
    6.7857   19.9724   22.1186 C   0  0  0  0  0  0  0  0  0  0  0  0
    6.9922   21.5951   21.6061 S   0  0  0  0  0  0  0  0  0  0  0  0
    2.5519   15.4709   21.6097 C   0  0  0  0  0  0  0  0  0  0  0  0
    2.3376   14.5084   22.3394 O   0  0  0  0  0  0  0  0  0  0  0  0
    1.6922   15.8304   20.5925 N   0  0  0  0  0  0  0  0  0  0  0  0
    2.0581   16.3971   19.8436 H   0  0  0  0  0  0  0  0  0  0  0  0
    0.5507   15.0053   20.2651 C   0  0  0  0  0  0  0  0  0  0  0  0
   -0.1637   15.6254   19.1066 C   0  0  0  0  0  0  0  0  0  0  0  0
   -0.6239   15.0084   17.9567 C   0  0  0  0  0  0  0  0  0  0  0  0
   -1.2553   15.9241   17.0633 C   0  0  0  0  0  0  0  0  0  0  0  0
   -1.2469   17.1970   17.5729 C   0  0  0  0  0  0  0  0  0  0  0  0
   -1.9987   18.7017   16.6660 Br  0  0  0  0  0  0  0  0  0  0  0  0
   -0.4996   17.3087   19.0886 S   0  0  0  0  0  0  0  0  0  0  0  0
  7  8  1  0  0  0
  8  9  2  0  0  0
  9 10  1  0  0  0
 10  1  1  0  0  0
  1  2  2  0  0  0
  2  3  1  0  0  0
  3  4  1  0  0  0
  4 13  1  0  0  0
 13 14  2  0  0  0
 13 15  1  0  0  0
 15 17  1  0  0  0
 17 18  1  0  0  0
 18 19  2  0  0  0
 19 20  1  0  0  0
 20 21  2  0  0  0
 21 22  1  0  0  0
 21 23  1  0  0  0
  4  5  2  0  0  0
 10 11  2  0  0  0
 11 12  1  0  0  0
 12  8  1  0  0  0
  5  1  1  0  0  0
 23 18  1  0  0  0
  3  6  1  0  0  0
 15 16  1  0  0  0
M  END
> <minimizedAffinity>
-6.90421

$$$$
OCNT-2310345


 35 37  0  0  0  0  0  0  0  0999 V2000
    3.6240   16.9943   22.6546 N   0  0  0  0  0  0  0  0  0  0  0  0
    3.0946   16.1681   21.6878 C   0  0  0  0  0  0  0  0  0  0  0  0
    3.2474   16.2441   20.4759 O   0  0  0  0  0  0  0  0  0  0  0  0
    2.3462   15.1606   22.2724 N   0  0  0  0  0  0  0  0  0  0  0  0
    3.4794   16.7389   23.6139 H   0  0  0  0  0  0  0  0  0  0  0  0
    1.9373   15.3528   23.1728 H   0  0  0  0  0  0  0  0  0  0  0  0
    6.2591   17.5195   24.2233 C   0  0  0  0  0  0  0  0  0  0  0  0
    5.6555   18.3197   23.1326 C   0  0  0  0  0  0  0  0  0  0  0  0
    6.1544   19.4804   22.5777 C   0  0  0  0  0  0  0  0  0  0  0  0
    5.2731   19.8724   21.5952 N   0  0  0  0  0  0  0  0  0  0  0  0
    4.2181   19.0345   21.5279 N   0  0  0  0  0  0  0  0  0  0  0  0
    4.4461   18.0800   22.4252 C   0  0  0  0  0  0  0  0  0  0  0  0
    5.3769   20.9850   20.7117 C   0  0  0  0  0  0  0  0  0  0  0  0
    4.2287   21.4380   20.0394 C   0  0  0  0  0  0  0  0  0  0  0  0
    4.3072   22.5174   19.1542 C   0  0  0  0  0  0  0  0  0  0  0  0
    5.5293   23.1454   18.9359 C   0  0  0  0  0  0  0  0  0  0  0  0
    5.6317   24.4683   17.8408 Cl  0  0  0  0  0  0  0  0  0  0  0  0
    6.6748   22.7076   19.6003 C   0  0  0  0  0  0  0  0  0  0  0  0
    6.6028   21.6282   20.4892 C   0  0  0  0  0  0  0  0  0  0  0  0
    1.6566   14.1765   21.4653 C   0  0  0  0  0  0  0  0  0  0  0  0
    0.7529   14.8517   20.4650 C   0  0  0  0  0  0  0  0  0  0  0  0
    0.3709   16.1890   20.6343 C   0  0  0  0  0  0  0  0  0  0  0  0
   -0.4567   16.8133   19.6988 C   0  0  0  0  0  0  0  0  0  0  0  0
   -0.9157   16.1142   18.5737 C   0  0  0  0  0  0  0  0  0  0  0  0
   -0.5262   14.7787   18.4009 C   0  0  0  0  0  0  0  0  0  0  0  0
    0.3057   14.1559   19.3344 C   0  0  0  0  0  0  0  0  0  0  0  0
   -1.8232   16.7840   17.5741 C   0  0  0  0  0  0  0  0  0  0  0  0
   -1.0234   18.2708   16.9474 S   0  0  0  0  0  0  0  0  0  0  0  0
    0.1140   17.8990   16.1334 O   0  0  0  0  0  0  0  0  0  0  0  0
   -2.0157   19.2186   16.4886 O   0  0  0  0  0  0  0  0  0  0  0  0
   -0.3431   18.8966   18.3587 N   0  0  0  0  0  0  0  0  0  0  0  0
   -0.4861   18.2745   19.1568 H   0  0  0  0  0  0  0  0  0  0  0  0
    0.9295   19.6324   18.2883 C   0  0  0  0  0  0  0  0  0  0  0  0
    0.8827   20.7519   19.3238 C   0  0  0  0  0  0  0  0  0  0  0  0
    2.0901   18.6874   18.5735 C   0  0  0  0  0  0  0  0  0  0  0  0
  7  8  1  0  0  0
  8  9  2  0  0  0
  9 10  1  0  0  0
 10 13  1  0  0  0
 13 14  1  0  0  0
 14 15  2  0  0  0
 15 16  1  0  0  0
 16 17  1  0  0  0
 16 18  2  0  0  0
 18 19  1  0  0  0
 10 11  1  0  0  0
 11 12  2  0  0  0
 12  1  1  0  0  0
  1  2  1  0  0  0
  2  3  2  0  0  0
  2  4  1  0  0  0
  4 20  1  0  0  0
 20 21  1  0  0  0
 21 22  1  0  0  0
 22 23  2  0  0  0
 23 24  1  0  0  0
 24 27  1  0  0  0
 27 28  1  0  0  0
 28 29  2  0  0  0
 28 30  2  0  0  0
 28 31  1  0  0  0
 31 33  1  0  0  0
 33 34  1  0  0  0
 33 35  1  0  0  0
 24 25  2  0  0  0
 25 26  1  0  0  0
 12  8  1  0  0  0
 26 21  2  0  0  0
 19 13  2  0  0  0
  1  5  1  0  0  0
  4  6  1  0  0  0
 31 32  1  0  0  0
M  END
> <minimizedAffinity>
0.61513

$$$$
OCNT-2310353


 29 32  0  0  0  0  0  0  0  0999 V2000
    2.2577   15.8566   22.0355 N   0  0  0  0  0  0  0  0  0  0  0  0
    2.3443   16.6793   20.9268 C   0  0  0  0  0  0  0  0  0  0  0  0
    1.5902   16.7019   19.9623 O   0  0  0  0  0  0  0  0  0  0  0  0
    2.8772   16.0645   22.8072 H   0  0  0  0  0  0  0  0  0  0  0  0
   -2.0565   12.5809   24.3267 C   0  0  0  0  0  0  0  0  0  0  0  0
   -1.5311   11.9635   23.2870 N   0  0  0  0  0  0  0  0  0  0  0  0
   -0.5416   12.7973   22.8261 C   0  0  0  0  0  0  0  0  0  0  0  0
    0.3324   12.6423   21.7438 C   0  0  0  0  0  0  0  0  0  0  0  0
    1.2661   13.6573   21.4741 C   0  0  0  0  0  0  0  0  0  0  0  0
    1.3348   14.8117   22.2612 C   0  0  0  0  0  0  0  0  0  0  0  0
    0.4627   14.9716   23.3537 C   0  0  0  0  0  0  0  0  0  0  0  0
   -0.4563   13.9466   23.6010 C   0  0  0  0  0  0  0  0  0  0  0  0
   -1.4284   13.7825   24.5511 N   0  0  0  0  0  0  0  0  0  0  0  0
   -1.6929   14.4326   25.2777 H   0  0  0  0  0  0  0  0  0  0  0  0
   -3.1722   12.1029   25.2025 C   0  0  0  0  0  0  0  0  0  0  0  0
   -5.3800   11.1117   25.3224 C   0  0  0  0  0  0  0  0  0  0  0  0
   -4.2878   11.5166   24.4261 N   0  0  0  0  0  0  0  0  0  0  0  0
   -4.7908   12.5065   23.4686 C   0  0  0  0  0  0  0  0  0  0  0  0
    3.4645   17.6615   20.9658 C   0  0  0  0  0  0  0  0  0  0  0  0
    3.5641   18.7045   20.0404 C   0  0  0  0  0  0  0  0  0  0  0  0
    4.6337   19.6039   20.1155 C   0  0  0  0  0  0  0  0  0  0  0  0
    5.6240   19.4898   21.1066 C   0  0  0  0  0  0  0  0  0  0  0  0
    5.4858   18.4507   22.0427 C   0  0  0  0  0  0  0  0  0  0  0  0
    4.4201   17.5476   21.9785 C   0  0  0  0  0  0  0  0  0  0  0  0
    6.7677   20.4696   21.1950 C   0  0  0  0  0  0  0  0  0  0  0  0
    6.6155   21.8557   20.5857 C   0  0  0  0  0  0  0  0  0  0  0  0
    6.6839   21.6861   22.0524 C   0  0  0  0  0  0  0  0  0  0  0  0
    5.5806   21.9496   22.8307 F   0  0  0  0  0  0  0  0  0  0  0  0
    7.7886   22.1225   22.7466 F   0  0  0  0  0  0  0  0  0  0  0  0
 16 17  1  0  0  0
 17 18  1  0  0  0
 17 15  1  0  0  0
 15  5  1  0  0  0
  5  6  2  0  0  0
  6  7  1  0  0  0
  7  8  2  0  0  0
  8  9  1  0  0  0
  9 10  2  0  0  0
 10  1  1  0  0  0
  1  2  1  0  0  0
  2  3  2  0  0  0
  2 19  1  0  0  0
 19 20  1  0  0  0
 20 21  2  0  0  0
 21 22  1  0  0  0
 22 25  1  0  0  0
 25 26  1  0  0  0
 26 27  1  0  0  0
 27 28  1  0  0  0
 27 29  1  0  0  0
 22 23  2  0  0  0
 23 24  1  0  0  0
 10 11  1  0  0  0
 11 12  2  0  0  0
 12 13  1  0  0  0
 13  5  1  0  0  0
 12  7  1  0  0  0
 24 19  2  0  0  0
 27 25  1  0  0  0
  1  4  1  0  0  0
 13 14  1  0  0  0
M  END
> <minimizedAffinity>
-1.65251

$$$$
OCNT-2310359


 25 28  0  0  0  0  0  0  0  0999 V2000
    0.5898   19.0367   18.1182 C   0  0  0  0  0  0  0  0  0  0  0  0
    0.0216   19.5027   17.1329 O   0  0  0  0  0  0  0  0  0  0  0  0
    0.3277   17.7380   18.5672 N   0  0  0  0  0  0  0  0  0  0  0  0
    0.1847   17.4503   20.0174 C   0  0  0  0  0  0  0  0  0  0  0  0
    0.5588   15.9931   20.3730 C   0  0  0  0  0  0  0  0  0  0  0  0
   -0.0228   15.1025   19.3441 C   0  0  0  0  0  0  0  0  0  0  0  0
   -0.4932   15.5102   18.1165 C   0  0  0  0  0  0  0  0  0  0  0  0
   -0.5103   16.9268   17.6640 C   0  0  0  0  0  0  0  0  0  0  0  0
   -0.9260   14.3177   17.4923 C   0  0  0  0  0  0  0  0  0  0  0  0
   -1.5276   14.1572   16.1463 C   0  0  0  0  0  0  0  0  0  0  0  0
   -0.7286   13.2503   18.2815 N   0  0  0  0  0  0  0  0  0  0  0  0
   -0.1756   13.7547   19.3993 N   0  0  0  0  0  0  0  0  0  0  0  0
    0.0676   13.1133   20.1472 H   0  0  0  0  0  0  0  0  0  0  0  0
    3.4644   20.4201   19.9672 C   0  0  0  0  0  0  0  0  0  0  0  0
    2.5906   21.4845   19.9336 C   0  0  0  0  0  0  0  0  0  0  0  0
    1.4583   21.0817   19.2808 N   0  0  0  0  0  0  0  0  0  0  0  0
    1.6017   19.7846   18.8357 C   0  0  0  0  0  0  0  0  0  0  0  0
    2.8335   19.3432   19.2956 C   0  0  0  0  0  0  0  0  0  0  0  0
    0.6264   21.6418   19.1476 H   0  0  0  0  0  0  0  0  0  0  0  0
    8.1072   21.9084   20.5604 C   0  0  0  0  0  0  0  0  0  0  0  0
    6.8685   21.1178   20.7919 C   0  0  0  0  0  0  0  0  0  0  0  0
    5.7467   21.2812   20.1246 N   0  0  0  0  0  0  0  0  0  0  0  0
    4.7906   20.3917   20.5871 C   0  0  0  0  0  0  0  0  0  0  0  0
    5.2086   19.5590   21.6043 C   0  0  0  0  0  0  0  0  0  0  0  0
    6.8426   19.8945   21.9993 S   0  0  0  0  0  0  0  0  0  0  0  0
 20 21  1  0  0  0
 21 22  2  0  0  0
 22 23  1  0  0  0
 23 14  1  0  0  0
 14 15  2  0  0  0
 15 16  1  0  0  0
 16 17  1  0  0  0
 17  1  1  0  0  0
  1  2  2  0  0  0
  1  3  1  0  0  0
  3  4  1  0  0  0
  4  5  1  0  0  0
  5  6  1  0  0  0
  6  7  2  0  0  0
  7  8  1  0  0  0
  7  9  1  0  0  0
  9 10  1  0  0  0
  9 11  2  0  0  0
 11 12  1  0  0  0
 17 18  2  0  0  0
 23 24  2  0  0  0
 24 25  1  0  0  0
 25 21  1  0  0  0
 18 14  1  0  0  0
  8  3  1  0  0  0
 12  6  1  0  0  0
 16 19  1  0  0  0
 12 13  1  0  0  0
M  END
> <minimizedAffinity>
-4.81443

$$$$
OCNT-2310365


 29 32  0  0  0  0  0  0  0  0999 V2000
    1.2906   19.6386   18.1655 N   0  0  0  0  0  0  0  0  0  0  0  0
    0.2157   18.8879   18.5780 C   0  0  0  0  0  0  0  0  0  0  0  0
   -0.2321   18.7716   19.7109 O   0  0  0  0  0  0  0  0  0  0  0  0
   -0.3715   18.2473   17.5032 N   0  0  0  0  0  0  0  0  0  0  0  0
    1.3898   19.8023   17.1775 H   0  0  0  0  0  0  0  0  0  0  0  0
    0.2593   17.9566   16.7682 H   0  0  0  0  0  0  0  0  0  0  0  0
    3.8359   20.9167   20.1842 N   0  0  0  0  0  0  0  0  0  0  0  0
    2.9267   21.9427   20.2989 C   0  0  0  0  0  0  0  0  0  0  0  0
    1.8359   21.6065   19.5306 C   0  0  0  0  0  0  0  0  0  0  0  0
    2.1357   20.3403   18.9975 C   0  0  0  0  0  0  0  0  0  0  0  0
    3.3361   19.9349   19.3946 N   0  0  0  0  0  0  0  0  0  0  0  0
    5.5476   19.6330   21.5111 C   0  0  0  0  0  0  0  0  0  0  0  0
    6.8632   19.5905   21.9998 C   0  0  0  0  0  0  0  0  0  0  0  0
    7.2790   18.5364   22.7195 F   0  0  0  0  0  0  0  0  0  0  0  0
    7.7713   20.6199   21.7749 C   0  0  0  0  0  0  0  0  0  0  0  0
    7.3707   21.7322   21.0511 C   0  0  0  0  0  0  0  0  0  0  0  0
    6.0680   21.7975   20.5520 C   0  0  0  0  0  0  0  0  0  0  0  0
    5.1375   20.7496   20.7606 C   0  0  0  0  0  0  0  0  0  0  0  0
    4.0379   17.6337   22.1712 N   0  0  0  0  0  0  0  0  0  0  0  0
    4.7155   18.5290   21.8753 C   0  0  0  0  0  0  0  0  0  0  0  0
   -1.4802   17.3452   17.7563 C   0  0  0  0  0  0  0  0  0  0  0  0
   -0.9603   16.0314   18.2018 C   0  0  0  0  0  0  0  0  0  0  0  0
   -1.0228   14.8605   17.5999 N   0  0  0  0  0  0  0  0  0  0  0  0
   -0.3863   13.9656   18.4336 N   0  0  0  0  0  0  0  0  0  0  0  0
    0.0227   14.6505   19.4823 C   0  0  0  0  0  0  0  0  0  0  0  0
   -0.3073   15.9792   19.4026 O   0  0  0  0  0  0  0  0  0  0  0  0
    0.7917   14.0108   20.6722 C   0  0  0  0  0  0  0  0  0  0  0  0
    1.7034   14.8619   21.5181 C   0  0  0  0  0  0  0  0  0  0  0  0
    0.3990   14.3736   22.0812 C   0  0  0  0  0  0  0  0  0  0  0  0
 19 20  3  0  0  0
 20 12  1  0  0  0
 12 13  2  0  0  0
 13 14  1  0  0  0
 13 15  1  0  0  0
 15 16  2  0  0  0
 16 17  1  0  0  0
 17 18  2  0  0  0
 18  7  1  0  0  0
  7  8  1  0  0  0
  8  9  2  0  0  0
  9 10  1  0  0  0
 10  1  1  0  0  0
  1  2  1  0  0  0
  2  3  2  0  0  0
  2  4  1  0  0  0
  4 21  1  0  0  0
 21 22  1  0  0  0
 22 23  2  0  0  0
 23 24  1  0  0  0
 24 25  2  0  0  0
 25 27  1  0  0  0
 27 28  1  0  0  0
 28 29  1  0  0  0
 25 26  1  0  0  0
 10 11  2  0  0  0
 18 12  1  0  0  0
 11  7  1  0  0  0
 26 22  1  0  0  0
 29 27  1  0  0  0
  1  5  1  0  0  0
  4  6  1  0  0  0
M  END
> <minimizedAffinity>
-7.52060

$$$$
OCNT-2310368


 26 28  0  0  0  0  0  0  0  0999 V2000
    0.5458   14.0805   21.1255 C   0  0  0  0  0  0  0  0  0  0  0  0
   -0.1514   15.3335   19.1183 C   0  0  0  0  0  0  0  0  0  0  0  0
   -0.5445   14.3262   18.5426 O   0  0  0  0  0  0  0  0  0  0  0  0
    0.3410   15.3322   20.4085 N   0  0  0  0  0  0  0  0  0  0  0  0
    0.9133   16.1217   20.6843 H   0  0  0  0  0  0  0  0  0  0  0  0
    0.4308   18.9995   18.4331 C   0  0  0  0  0  0  0  0  0  0  0  0
   -0.1067   19.1415   17.1489 C   0  0  0  0  0  0  0  0  0  0  0  0
   -0.6561   18.0389   16.4920 C   0  0  0  0  0  0  0  0  0  0  0  0
   -0.6782   16.7908   17.1182 C   0  0  0  0  0  0  0  0  0  0  0  0
   -0.1561   16.6445   18.4106 C   0  0  0  0  0  0  0  0  0  0  0  0
    0.4089   17.7503   19.0610 C   0  0  0  0  0  0  0  0  0  0  0  0
    1.4578   21.0559   19.6355 N   0  0  0  0  0  0  0  0  0  0  0  0
    1.0014   20.1323   19.1014 C   0  0  0  0  0  0  0  0  0  0  0  0
    1.4588   14.2331   22.3390 C   0  0  0  0  0  0  0  0  0  0  0  0
    2.6339   15.0791   22.0343 C   0  0  0  0  0  0  0  0  0  0  0  0
    2.7118   16.3747   21.8449 N   0  0  0  0  0  0  0  0  0  0  0  0
    4.0626   16.5679   21.6371 C   0  0  0  0  0  0  0  0  0  0  0  0
    4.7871   15.4377   21.7116 N   0  0  0  0  0  0  0  0  0  0  0  0
    3.8404   14.4500   21.9639 O   0  0  0  0  0  0  0  0  0  0  0  0
    4.6297   17.8871   21.3747 C   0  0  0  0  0  0  0  0  0  0  0  0
    5.6620   18.3861   22.1851 C   0  0  0  0  0  0  0  0  0  0  0  0
    6.2135   19.6486   21.9429 C   0  0  0  0  0  0  0  0  0  0  0  0
    5.7356   20.4216   20.8875 C   0  0  0  0  0  0  0  0  0  0  0  0
    6.4129   21.9740   20.5886 Cl  0  0  0  0  0  0  0  0  0  0  0  0
    4.7118   19.9438   20.0728 C   0  0  0  0  0  0  0  0  0  0  0  0
    4.1607   18.6810   20.3156 C   0  0  0  0  0  0  0  0  0  0  0  0
 12 13  3  0  0  0
 13  6  1  0  0  0
  6  7  1  0  0  0
  7  8  2  0  0  0
  8  9  1  0  0  0
  9 10  2  0  0  0
 10  2  1  0  0  0
  2  3  2  0  0  0
  2  4  1  0  0  0
  4  1  1  0  0  0
  1 14  1  0  0  0
 14 15  1  0  0  0
 15 16  2  0  0  0
 16 17  1  0  0  0
 17 20  1  0  0  0
 20 21  1  0  0  0
 21 22  2  0  0  0
 22 23  1  0  0  0
 23 24  1  0  0  0
 23 25  2  0  0  0
 25 26  1  0  0  0
 17 18  2  0  0  0
 18 19  1  0  0  0
 10 11  1  0  0  0
 11  6  2  0  0  0
 19 15  1  0  0  0
 26 20  2  0  0  0
  4  5  1  0  0  0
M  END
> <minimizedAffinity>
-10.19624

$$$$
OCNT-2310376


 32 34  0  0  0  0  0  0  0  0999 V2000
   -0.1961   16.4741   19.1596 C   0  0  0  0  0  0  0  0  0  0  0  0
   -1.1742   16.4067   17.9799 C   0  0  0  0  0  0  0  0  0  0  0  0
   -1.2401   17.7358   17.2314 C   0  0  0  0  0  0  0  0  0  0  0  0
    0.1428   18.2528   16.8467 C   0  0  0  0  0  0  0  0  0  0  0  0
    1.0674   18.2829   18.0069 N   0  0  0  0  0  0  0  0  0  0  0  0
    1.1731   16.9579   18.6822 C   0  0  0  0  0  0  0  0  0  0  0  0
    0.2585   15.1660   21.1540 N   0  0  0  0  0  0  0  0  0  0  0  0
   -0.0684   15.1086   19.8164 C   0  0  0  0  0  0  0  0  0  0  0  0
   -0.2697   14.0556   19.2230 O   0  0  0  0  0  0  0  0  0  0  0  0
    0.6136   16.0394   21.5265 H   0  0  0  0  0  0  0  0  0  0  0  0
    0.5562   13.9486   21.9289 C   0  0  0  0  0  0  0  0  0  0  0  0
   -1.9274   12.4531   24.4125 C   0  0  0  0  0  0  0  0  0  0  0  0
   -1.0153   12.6979   23.3265 N   0  0  0  0  0  0  0  0  0  0  0  0
   -0.3727   13.9134   23.1682 C   0  0  0  0  0  0  0  0  0  0  0  0
   -0.4557   14.8120   23.9983 O   0  0  0  0  0  0  0  0  0  0  0  0
   -0.9223   12.0183   22.5808 H   0  0  0  0  0  0  0  0  0  0  0  0
    2.0701   13.8350   22.2206 C   0  0  0  0  0  0  0  0  0  0  0  0
    2.7944   15.1730   22.0507 C   0  0  0  0  0  0  0  0  0  0  0  0
    2.7663   12.7400   21.4077 C   0  0  0  0  0  0  0  0  0  0  0  0
    1.0242   19.6393   19.0375 S   0  0  0  0  0  0  0  0  0  0  0  0
    0.9768   20.8225   18.2040 O   0  0  0  0  0  0  0  0  0  0  0  0
    0.0227   19.4079   20.0554 O   0  0  0  0  0  0  0  0  0  0  0  0
    2.6058   19.5740   19.8375 C   0  0  0  0  0  0  0  0  0  0  0  0
    3.0138   18.4136   20.4945 C   0  0  0  0  0  0  0  0  0  0  0  0
    4.2592   18.3874   21.1238 C   0  0  0  0  0  0  0  0  0  0  0  0
    5.1019   19.5123   21.0982 C   0  0  0  0  0  0  0  0  0  0  0  0
    6.3560   19.4985   21.7286 C   0  0  0  0  0  0  0  0  0  0  0  0
    7.1848   20.6211   21.6935 C   0  0  0  0  0  0  0  0  0  0  0  0
    6.7719   21.7713   21.0272 C   0  0  0  0  0  0  0  0  0  0  0  0
    5.5285   21.8029   20.3942 C   0  0  0  0  0  0  0  0  0  0  0  0
    4.6823   20.6833   20.4212 C   0  0  0  0  0  0  0  0  0  0  0  0
    3.4305   20.7024   19.7901 C   0  0  0  0  0  0  0  0  0  0  0  0
 12 13  1  0  0  0
 13 14  1  0  0  0
 14 15  2  0  0  0
 14 11  1  0  0  0
 11  7  1  0  0  0
  7  8  1  0  0  0
  8  9  2  0  0  0
  8  1  1  0  0  0
  1  2  1  0  0  0
  2  3  1  0  0  0
  3  4  1  0  0  0
  4  5  1  0  0  0
  5 20  1  0  0  0
 20 21  2  0  0  0
 20 22  2  0  0  0
 20 23  1  0  0  0
 23 24  1  0  0  0
 24 25  2  0  0  0
 25 26  1  0  0  0
 26 27  2  0  0  0
 27 28  1  0  0  0
 28 29  2  0  0  0
 29 30  1  0  0  0
 30 31  2  0  0  0
 31 32  1  0  0  0
  5  6  1  0  0  0
 11 17  1  0  0  0
 17 18  1  0  0  0
 17 19  1  0  0  0
  6  1  1  0  0  0
 32 23  2  0  0  0
 31 26  1  0  0  0
 13 16  1  0  0  0
  7 10  1  0  0  0
M  END
> <minimizedAffinity>
-7.01758

$$$$
OCNT-2310380


 25 29  0  0  0  0  0  0  0  0999 V2000
    1.9950   14.1806   21.6176 C   0  0  0  0  0  0  0  0  0  0  0  0
    2.5715   15.4236   21.8205 C   0  0  0  0  0  0  0  0  0  0  0  0
    2.1765   16.5192   21.0454 C   0  0  0  0  0  0  0  0  0  0  0  0
    1.1764   16.3886   20.0430 C   0  0  0  0  0  0  0  0  0  0  0  0
    0.6341   15.1129   19.8483 C   0  0  0  0  0  0  0  0  0  0  0  0
    1.0256   14.0068   20.6302 C   0  0  0  0  0  0  0  0  0  0  0  0
   -0.5110   15.1001   18.5693 S   0  0  0  0  0  0  0  0  0  0  0  0
   -0.3019   16.7551   18.2659 C   0  0  0  0  0  0  0  0  0  0  0  0
   -0.9853   17.3392   17.2683 N   0  0  0  0  0  0  0  0  0  0  0  0
   -0.7134   18.6381   17.1622 C   0  0  0  0  0  0  0  0  0  0  0  0
    0.1036   19.3626   17.9376 N   0  0  0  0  0  0  0  0  0  0  0  0
    0.7598   18.7592   18.9551 C   0  0  0  0  0  0  0  0  0  0  0  0
    0.5908   17.3643   19.1324 C   0  0  0  0  0  0  0  0  0  0  0  0
    1.5711   19.5268   19.8012 N   0  0  0  0  0  0  0  0  0  0  0  0
    0.9878   20.1534   20.3475 H   0  0  0  0  0  0  0  0  0  0  0  0
    2.6926   20.2124   19.1537 C   0  0  0  0  0  0  0  0  0  0  0  0
    3.7703   20.5949   20.1860 C   0  0  0  0  0  0  0  0  0  0  0  0
    4.9146   19.5582   20.2132 C   0  0  0  0  0  0  0  0  0  0  0  0
    5.9612   19.8859   21.2047 N   0  0  0  0  0  0  0  0  0  0  0  0
    5.9885   21.3202   21.5247 C   0  0  0  0  0  0  0  0  0  0  0  0
    5.5874   22.1650   20.3079 C   0  0  0  0  0  0  0  0  0  0  0  0
    4.2410   21.9234   19.8755 O   0  0  0  0  0  0  0  0  0  0  0  0
    6.0409   18.9298   22.3178 C   0  0  0  0  0  0  0  0  0  0  0  0
    4.8382   18.2945   22.9574 C   0  0  0  0  0  0  0  0  0  0  0  0
    5.7678   17.4639   22.1181 C   0  0  0  0  0  0  0  0  0  0  0  0
  1  2  2  0  0  0
  2  3  1  0  0  0
  3  4  2  0  0  0
  4  5  1  0  0  0
  5  6  2  0  0  0
  5  7  1  0  0  0
  7  8  1  0  0  0
  8  9  2  0  0  0
  9 10  1  0  0  0
 10 11  2  0  0  0
 11 12  1  0  0  0
 12 14  1  0  0  0
 14 16  1  0  0  0
 16 17  1  0  0  0
 17 18  1  0  0  0
 18 19  1  0  0  0
 19 23  1  0  0  0
 23 24  1  0  0  0
 24 25  1  0  0  0
 19 20  1  0  0  0
 20 21  1  0  0  0
 21 22  1  0  0  0
 12 13  2  0  0  0
  6  1  1  0  0  0
 13  8  1  0  0  0
 13  4  1  0  0  0
 22 17  1  0  0  0
 25 23  1  0  0  0
 14 15  1  0  0  0
M  END
> <minimizedAffinity>
-10.37343

$$$$
OCNT-2310393


 30 33  0  0  0  0  0  0  0  0999 V2000
    3.2139   15.4758   21.8395 C   0  0  0  0  0  0  0  0  0  0  0  0
    3.5818   16.9577   21.6522 C   0  0  0  0  0  0  0  0  0  0  0  0
    5.0565   17.1435   22.0999 C   0  0  0  0  0  0  0  0  0  0  0  0
    5.4921   18.5399   22.2798 N   0  0  0  0  0  0  0  0  0  0  0  0
    6.5548   18.7448   23.2667 C   0  0  0  0  0  0  0  0  0  0  0  0
    5.1755   19.5897   21.4215 C   0  0  0  0  0  0  0  0  0  0  0  0
    5.3738   20.9257   21.8383 C   0  0  0  0  0  0  0  0  0  0  0  0
    5.0488   22.0287   21.0411 C   0  0  0  0  0  0  0  0  0  0  0  0
    4.4987   21.8332   19.7867 C   0  0  0  0  0  0  0  0  0  0  0  0
    4.2842   20.5363   19.3379 C   0  0  0  0  0  0  0  0  0  0  0  0
    4.6241   19.4169   20.1341 C   0  0  0  0  0  0  0  0  0  0  0  0
    4.3654   18.0528   19.5487 C   0  0  0  0  0  0  0  0  0  0  0  0
    3.2917   17.3658   20.2597 N   0  0  0  0  0  0  0  0  0  0  0  0
    1.9412   17.5424   19.9250 C   0  0  0  0  0  0  0  0  0  0  0  0
    1.0423   17.3699   20.7462 O   0  0  0  0  0  0  0  0  0  0  0  0
    1.7180   17.8836   18.6153 N   0  0  0  0  0  0  0  0  0  0  0  0
    2.3998   17.5952   17.9264 H   0  0  0  0  0  0  0  0  0  0  0  0
    0.5088   18.2814   18.0097 C   0  0  0  0  0  0  0  0  0  0  0  0
    0.2341   19.5912   17.6101 C   0  0  0  0  0  0  0  0  0  0  0  0
   -0.9841   19.8881   16.9984 C   0  0  0  0  0  0  0  0  0  0  0  0
   -1.9124   18.8762   16.7867 C   0  0  0  0  0  0  0  0  0  0  0  0
   -3.0817   19.1680   16.2019 F   0  0  0  0  0  0  0  0  0  0  0  0
   -1.6520   17.5642   17.1698 C   0  0  0  0  0  0  0  0  0  0  0  0
   -0.4339   17.2452   17.7819 C   0  0  0  0  0  0  0  0  0  0  0  0
   -0.1029   15.9309   18.2160 N   0  0  0  0  0  0  0  0  0  0  0  0
   -0.2954   15.7828   19.6816 C   0  0  0  0  0  0  0  0  0  0  0  0
    0.1640   14.3783   20.1090 C   0  0  0  0  0  0  0  0  0  0  0  0
   -0.5446   13.3517   19.3921 O   0  0  0  0  0  0  0  0  0  0  0  0
   -0.3413   13.4948   17.9752 C   0  0  0  0  0  0  0  0  0  0  0  0
   -0.8263   14.8672   17.4777 C   0  0  0  0  0  0  0  0  0  0  0  0
  1  2  1  0  0  0
  2  3  1  0  0  0
  3  4  1  0  0  0
  4  5  1  0  0  0
  4  6  1  0  0  0
  6  7  2  0  0  0
  7  8  1  0  0  0
  8  9  2  0  0  0
  9 10  1  0  0  0
 10 11  2  0  0  0
 11 12  1  0  0  0
 12 13  1  0  0  0
 13 14  1  0  0  0
 14 15  2  0  0  0
 14 16  1  0  0  0
 16 18  1  0  0  0
 18 19  1  0  0  0
 19 20  2  0  0  0
 20 21  1  0  0  0
 21 22  1  0  0  0
 21 23  2  0  0  0
 23 24  1  0  0  0
 24 25  1  0  0  0
 25 26  1  0  0  0
 26 27  1  0  0  0
 27 28  1  0  0  0
 28 29  1  0  0  0
 29 30  1  0  0  0
 13  2  1  0  0  0
 24 18  2  0  0  0
 30 25  1  0  0  0
 11  6  1  0  0  0
 16 17  1  0  0  0
M  END
> <minimizedAffinity>
-4.00969

$$$$
OCNT-2310396


 29 32  0  0  0  0  0  0  0  0999 V2000
    4.2754   16.7499   22.0767 C   0  0  0  0  0  0  0  0  0  0  0  0
    0.5977   13.7671   21.2808 C   0  0  0  0  0  0  0  0  0  0  0  0
    0.4607   15.1332   20.5892 C   0  0  0  0  0  0  0  0  0  0  0  0
    1.5779   15.9654   21.2069 C   0  0  0  0  0  0  0  0  0  0  0  0
    2.6145   14.9998   21.5315 N   0  0  0  0  0  0  0  0  0  0  0  0
    3.9042   15.2658   21.9541 C   0  0  0  0  0  0  0  0  0  0  0  0
    4.6916   14.3553   22.2094 O   0  0  0  0  0  0  0  0  0  0  0  0
    2.1233   13.6338   21.4087 C   0  0  0  0  0  0  0  0  0  0  0  0
   -2.8172   11.3986   24.1113 C   0  0  0  0  0  0  0  0  0  0  0  0
   -1.8951   12.5656   23.9178 C   0  0  0  0  0  0  0  0  0  0  0  0
   -1.7705   13.5455   24.9055 C   0  0  0  0  0  0  0  0  0  0  0  0
   -0.8902   14.6110   24.7291 C   0  0  0  0  0  0  0  0  0  0  0  0
   -0.1177   14.7028   23.5695 C   0  0  0  0  0  0  0  0  0  0  0  0
   -0.2079   13.7247   22.5705 C   0  0  0  0  0  0  0  0  0  0  0  0
   -1.1050   12.6576   22.7634 C   0  0  0  0  0  0  0  0  0  0  0  0
    4.8289   17.2555   20.8700 O   0  0  0  0  0  0  0  0  0  0  0  0
    4.3746   18.4692   20.4296 C   0  0  0  0  0  0  0  0  0  0  0  0
    4.9254   19.7106   20.7471 C   0  0  0  0  0  0  0  0  0  0  0  0
    4.3597   20.8761   20.2293 C   0  0  0  0  0  0  0  0  0  0  0  0
    3.2439   20.8029   19.3944 C   0  0  0  0  0  0  0  0  0  0  0  0
    2.6800   19.5647   19.0664 C   0  0  0  0  0  0  0  0  0  0  0  0
    3.2536   18.4039   19.5903 C   0  0  0  0  0  0  0  0  0  0  0  0
    1.5558   19.5785   18.2168 N   0  0  0  0  0  0  0  0  0  0  0  0
    0.2982   19.0832   18.4775 C   0  0  0  0  0  0  0  0  0  0  0  0
   -0.1101   18.5492   19.4959 O   0  0  0  0  0  0  0  0  0  0  0  0
    1.6851   19.9985   17.3065 H   0  0  0  0  0  0  0  0  0  0  0  0
   -0.6448   19.2826   17.3397 C   0  0  0  0  0  0  0  0  0  0  0  0
   -0.8329   18.2222   16.2783 C   0  0  0  0  0  0  0  0  0  0  0  0
   -1.9202   18.4736   17.2798 C   0  0  0  0  0  0  0  0  0  0  0  0
  9 10  1  0  0  0
 10 11  1  0  0  0
 11 12  2  0  0  0
 12 13  1  0  0  0
 13 14  2  0  0  0
 14  2  1  0  0  0
  2  3  1  0  0  0
  3  4  1  0  0  0
  4  5  1  0  0  0
  5  6  1  0  0  0
  6  7  2  0  0  0
  6  1  1  0  0  0
  1 16  1  0  0  0
 16 17  1  0  0  0
 17 18  1  0  0  0
 18 19  2  0  0  0
 19 20  1  0  0  0
 20 21  2  0  0  0
 21 23  1  0  0  0
 23 24  1  0  0  0
 24 25  2  0  0  0
 24 27  1  0  0  0
 27 28  1  0  0  0
 28 29  1  0  0  0
 21 22  1  0  0  0
  5  8  1  0  0  0
 14 15  1  0  0  0
 15 10  2  0  0  0
  8  2  1  0  0  0
 22 17  2  0  0  0
 29 27  1  0  0  0
 23 26  1  0  0  0
M  END
> <minimizedAffinity>
-6.64753

$$$$
OCNT-2310409


 24 27  0  0  0  0  0  0  0  0999 V2000
    4.5425   15.5181   21.7767 O   0  0  0  0  0  0  0  0  0  0  0  0
    3.9327   16.5479   21.5148 C   0  0  0  0  0  0  0  0  0  0  0  0
    2.5880   16.6882   21.2771 N   0  0  0  0  0  0  0  0  0  0  0  0
    2.2671   17.6293   21.0756 H   0  0  0  0  0  0  0  0  0  0  0  0
    4.6282   17.8458   21.4189 C   0  0  0  0  0  0  0  0  0  0  0  0
    4.1929   18.8269   20.5980 N   0  0  0  0  0  0  0  0  0  0  0  0
    5.0687   19.8268   20.7988 N   0  0  0  0  0  0  0  0  0  0  0  0
    4.9739   21.0571   20.0345 C   0  0  0  0  0  0  0  0  0  0  0  0
    5.8484   22.1658   20.6211 C   0  0  0  0  0  0  0  0  0  0  0  0
    7.2278   21.6274   21.0101 C   0  0  0  0  0  0  0  0  0  0  0  0
    7.1084   20.5176   22.0600 C   0  0  0  0  0  0  0  0  0  0  0  0
    6.0538   19.5314   21.6989 C   0  0  0  0  0  0  0  0  0  0  0  0
    5.7926   18.2497   22.1249 C   0  0  0  0  0  0  0  0  0  0  0  0
    1.6250   15.7218   21.2759 C   0  0  0  0  0  0  0  0  0  0  0  0
    1.2369   15.1433   22.3885 N   0  0  0  0  0  0  0  0  0  0  0  0
    0.2538   14.2023   22.1218 C   0  0  0  0  0  0  0  0  0  0  0  0
   -0.0820   14.0922   20.7853 C   0  0  0  0  0  0  0  0  0  0  0  0
    0.8516   15.1868   19.8571 S   0  0  0  0  0  0  0  0  0  0  0  0
   -0.3368   13.4170   23.2586 C   0  0  0  0  0  0  0  0  0  0  0  0
   -1.2643   12.3015   22.7622 C   0  0  0  0  0  0  0  0  0  0  0  0
   -1.8947   11.5750   23.9416 C   0  0  0  0  0  0  0  0  0  0  0  0
   -2.5883   12.4875   24.7908 O   0  0  0  0  0  0  0  0  0  0  0  0
   -1.7261   13.4798   25.3449 C   0  0  0  0  0  0  0  0  0  0  0  0
   -1.0858   14.3180   24.2478 C   0  0  0  0  0  0  0  0  0  0  0  0
  1  2  2  0  0  0
  2  3  1  0  0  0
  3 14  1  0  0  0
 14 15  2  0  0  0
 15 16  1  0  0  0
 16 19  1  0  0  0
 19 20  1  0  0  0
 20 21  1  0  0  0
 21 22  1  0  0  0
 22 23  1  0  0  0
 23 24  1  0  0  0
 16 17  2  0  0  0
 17 18  1  0  0  0
  2  5  1  0  0  0
  5  6  2  0  0  0
  6  7  1  0  0  0
  7  8  1  0  0  0
  8  9  1  0  0  0
  9 10  1  0  0  0
 10 11  1  0  0  0
 11 12  1  0  0  0
 12 13  2  0  0  0
 18 14  1  0  0  0
 13  5  1  0  0  0
 24 19  1  0  0  0
 12  7  1  0  0  0
  3  4  1  0  0  0
M  END
> <minimizedAffinity>
-5.40580

$$$$
OCNT-2310411


 25 28  0  0  0  0  0  0  0  0999 V2000
    2.6283   18.0581   20.3203 C   0  0  0  0  0  0  0  0  0  0  0  0
    1.6301   18.5396   19.7953 O   0  0  0  0  0  0  0  0  0  0  0  0
    2.7724   16.7648   20.7879 N   0  0  0  0  0  0  0  0  0  0  0  0
    3.6805   16.4483   21.1006 H   0  0  0  0  0  0  0  0  0  0  0  0
    7.9261   22.2531   20.3610 C   0  0  0  0  0  0  0  0  0  0  0  0
    7.2125   21.1730   20.9880 N   0  0  0  0  0  0  0  0  0  0  0  0
    7.6901   20.6415   22.1288 N   0  0  0  0  0  0  0  0  0  0  0  0
    6.8544   19.6827   22.5045 N   0  0  0  0  0  0  0  0  0  0  0  0
    5.8460   19.6135   21.5827 C   0  0  0  0  0  0  0  0  0  0  0  0
    4.7258   18.7721   21.5278 C   0  0  0  0  0  0  0  0  0  0  0  0
    3.8416   18.9150   20.4465 C   0  0  0  0  0  0  0  0  0  0  0  0
    4.0627   19.8962   19.4666 C   0  0  0  0  0  0  0  0  0  0  0  0
    5.1773   20.7431   19.5137 C   0  0  0  0  0  0  0  0  0  0  0  0
    6.0511   20.5659   20.5902 C   0  0  0  0  0  0  0  0  0  0  0  0
    1.7699   15.8111   20.7992 C   0  0  0  0  0  0  0  0  0  0  0  0
    1.5617   14.7908   21.6940 C   0  0  0  0  0  0  0  0  0  0  0  0
    0.4638   14.1053   21.2531 N   0  0  0  0  0  0  0  0  0  0  0  0
   -0.1021   14.6594   20.1611 N   0  0  0  0  0  0  0  0  0  0  0  0
    0.7145   15.6751   19.8700 C   0  0  0  0  0  0  0  0  0  0  0  0
   -0.1714   12.9758   21.9114 C   0  0  0  0  0  0  0  0  0  0  0  0
   -0.3948   13.1988   23.4054 C   0  0  0  0  0  0  0  0  0  0  0  0
   -1.0177   14.5562   23.7004 C   0  0  0  0  0  0  0  0  0  0  0  0
   -1.6725   14.3085   25.0358 C   0  0  0  0  0  0  0  0  0  0  0  0
   -2.1919   12.8967   24.8722 C   0  0  0  0  0  0  0  0  0  0  0  0
   -1.3153   12.2333   23.9504 O   0  0  0  0  0  0  0  0  0  0  0  0
  5  6  1  0  0  0
  6  7  1  0  0  0
  7  8  2  0  0  0
  8  9  1  0  0  0
  9 10  2  0  0  0
 10 11  1  0  0  0
 11  1  1  0  0  0
  1  2  2  0  0  0
  1  3  1  0  0  0
  3 15  1  0  0  0
 15 16  2  0  0  0
 16 17  1  0  0  0
 17 20  1  0  0  0
 20 21  1  0  0  0
 21 22  1  0  0  0
 22 23  1  0  0  0
 23 24  1  0  0  0
 24 25  1  0  0  0
 17 18  1  0  0  0
 18 19  2  0  0  0
 11 12  2  0  0  0
 12 13  1  0  0  0
 13 14  2  0  0  0
 14  6  1  0  0  0
 14  9  1  0  0  0
 19 15  1  0  0  0
 25 21  1  0  0  0
  3  4  1  0  0  0
M  END
> <minimizedAffinity>
-4.56337

$$$$
OCNT-2310423


 26 29  0  0  0  0  0  0  0  0999 V2000
    1.3815   14.0518   21.9376 N   0  0  0  0  0  0  0  0  0  0  0  0
    2.7214   14.3229   21.8647 C   0  0  0  0  0  0  0  0  0  0  0  0
    3.5684   13.5383   22.2852 O   0  0  0  0  0  0  0  0  0  0  0  0
    3.0515   15.5503   21.3216 N   0  0  0  0  0  0  0  0  0  0  0  0
    2.1077   16.6148   20.9527 C   0  0  0  0  0  0  0  0  0  0  0  0
    2.6816   17.6238   19.9361 C   0  0  0  0  0  0  0  0  0  0  0  0
    4.0025   18.1492   20.3275 N   0  0  0  0  0  0  0  0  0  0  0  0
    4.6760   17.4504   21.4353 C   0  0  0  0  0  0  0  0  0  0  0  0
    4.4706   15.9320   21.3145 C   0  0  0  0  0  0  0  0  0  0  0  0
    0.8136   14.4253   21.1979 H   0  0  0  0  0  0  0  0  0  0  0  0
    4.1493   19.5383   20.3207 C   0  0  0  0  0  0  0  0  0  0  0  0
    3.2238   20.2955   19.6786 N   0  0  0  0  0  0  0  0  0  0  0  0
    3.3521   21.6292   19.6625 C   0  0  0  0  0  0  0  0  0  0  0  0
    4.3112   22.3587   20.2304 N   0  0  0  0  0  0  0  0  0  0  0  0
    5.2238   21.6271   20.9120 C   0  0  0  0  0  0  0  0  0  0  0  0
    5.1803   20.2357   20.9869 C   0  0  0  0  0  0  0  0  0  0  0  0
    6.4724   19.6542   21.9792 S   0  0  0  0  0  0  0  0  0  0  0  0
    7.0852   21.2225   22.2513 C   0  0  0  0  0  0  0  0  0  0  0  0
    6.3248   22.1829   21.6287 C   0  0  0  0  0  0  0  0  0  0  0  0
    0.9131   12.7831   22.4551 C   0  0  0  0  0  0  0  0  0  0  0  0
   -3.8242   12.2496   24.8662 C   0  0  0  0  0  0  0  0  0  0  0  0
   -2.5228   12.7775   24.3689 C   0  0  0  0  0  0  0  0  0  0  0  0
   -1.9599   14.0171   24.5882 C   0  0  0  0  0  0  0  0  0  0  0  0
   -0.6980   14.1568   23.9433 C   0  0  0  0  0  0  0  0  0  0  0  0
   -0.3339   13.0200   23.2489 C   0  0  0  0  0  0  0  0  0  0  0  0
   -1.5213   11.7941   23.3904 S   0  0  0  0  0  0  0  0  0  0  0  0
 21 22  1  0  0  0
 22 23  2  0  0  0
 23 24  1  0  0  0
 24 25  2  0  0  0
 25 20  1  0  0  0
 20  1  1  0  0  0
  1  2  1  0  0  0
  2  3  2  0  0  0
  2  4  1  0  0  0
  4  5  1  0  0  0
  5  6  1  0  0  0
  6  7  1  0  0  0
  7 11  1  0  0  0
 11 12  1  0  0  0
 12 13  2  0  0  0
 13 14  1  0  0  0
 14 15  2  0  0  0
 15 16  1  0  0  0
 16 17  1  0  0  0
 17 18  1  0  0  0
 18 19  2  0  0  0
  7  8  1  0  0  0
  8  9  1  0  0  0
 25 26  1  0  0  0
 26 22  1  0  0  0
  9  4  1  0  0  0
 16 11  2  0  0  0
 19 15  1  0  0  0
  1 10  1  0  0  0
M  END
> <minimizedAffinity>
-1.27893

$$$$
OCNT-2310433


 25 28  0  0  0  0  0  0  0  0999 V2000
    3.7078   17.9789   17.9762 C   0  0  0  0  0  0  0  0  0  0  0  0
    4.1315   18.8469   19.1601 C   0  0  0  0  0  0  0  0  0  0  0  0
    4.3929   18.0265   20.4340 C   0  0  0  0  0  0  0  0  0  0  0  0
    4.3081   18.8020   21.6413 O   0  0  0  0  0  0  0  0  0  0  0  0
    5.2398   19.8046   21.6801 C   0  0  0  0  0  0  0  0  0  0  0  0
    6.2616   19.6637   22.6221 C   0  0  0  0  0  0  0  0  0  0  0  0
    7.2351   20.6515   22.7503 C   0  0  0  0  0  0  0  0  0  0  0  0
    7.1756   21.7892   21.9503 C   0  0  0  0  0  0  0  0  0  0  0  0
    6.1385   21.9414   21.0268 C   0  0  0  0  0  0  0  0  0  0  0  0
    5.1511   20.9507   20.8741 C   0  0  0  0  0  0  0  0  0  0  0  0
    4.0248   21.2169   19.8918 C   0  0  0  0  0  0  0  0  0  0  0  0
    3.2941   20.0350   19.4302 N   0  0  0  0  0  0  0  0  0  0  0  0
    1.9084   20.1458   19.4062 C   0  0  0  0  0  0  0  0  0  0  0  0
    1.3083   21.2186   19.4355 O   0  0  0  0  0  0  0  0  0  0  0  0
    1.0681   18.9434   19.3509 C   0  0  0  0  0  0  0  0  0  0  0  0
   -0.0561   18.9230   18.5335 C   0  0  0  0  0  0  0  0  0  0  0  0
   -0.7792   17.7509   18.4859 C   0  0  0  0  0  0  0  0  0  0  0  0
   -0.4436   16.6381   19.1756 N   0  0  0  0  0  0  0  0  0  0  0  0
    0.6893   16.6664   19.9290 C   0  0  0  0  0  0  0  0  0  0  0  0
    1.4806   17.8002   20.0364 C   0  0  0  0  0  0  0  0  0  0  0  0
    1.0409   15.4747   20.6197 N   0  0  0  0  0  0  0  0  0  0  0  0
    0.3822   14.2651   20.6553 C   0  0  0  0  0  0  0  0  0  0  0  0
    1.1447   13.4469   21.4569 C   0  0  0  0  0  0  0  0  0  0  0  0
    2.2496   14.1059   21.9162 N   0  0  0  0  0  0  0  0  0  0  0  0
    2.1605   15.3153   21.4061 C   0  0  0  0  0  0  0  0  0  0  0  0
  1  2  1  0  0  0
  2  3  1  0  0  0
  3  4  1  0  0  0
  4  5  1  0  0  0
  5  6  2  0  0  0
  6  7  1  0  0  0
  7  8  2  0  0  0
  8  9  1  0  0  0
  9 10  2  0  0  0
 10 11  1  0  0  0
 11 12  1  0  0  0
 12 13  1  0  0  0
 13 14  2  0  0  0
 13 15  1  0  0  0
 15 16  2  0  0  0
 16 17  1  0  0  0
 17 18  2  0  0  0
 18 19  1  0  0  0
 19 21  1  0  0  0
 21 22  1  0  0  0
 22 23  2  0  0  0
 23 24  1  0  0  0
 24 25  2  0  0  0
 19 20  2  0  0  0
 12  2  1  0  0  0
 20 15  1  0  0  0
 10  5  1  0  0  0
 25 21  1  0  0  0
M  END
> <minimizedAffinity>
-5.27882

$$$$
OCNT-2310436


 22 23  0  0  0  0  0  0  0  0999 V2000
    1.9064   20.1351   18.7832 N   0  0  0  0  0  0  0  0  0  0  0  0
    1.7163   20.9078   18.1481 H   0  0  0  0  0  0  0  0  0  0  0  0
    3.0907   20.3299   19.4988 C   0  0  0  0  0  0  0  0  0  0  0  0
    3.5545   21.6415   19.6740 C   0  0  0  0  0  0  0  0  0  0  0  0
    4.7659   21.9093   20.3214 C   0  0  0  0  0  0  0  0  0  0  0  0
    5.5695   20.8618   20.7841 C   0  0  0  0  0  0  0  0  0  0  0  0
    5.1301   19.5472   20.5855 C   0  0  0  0  0  0  0  0  0  0  0  0
    3.9160   19.2885   19.9356 C   0  0  0  0  0  0  0  0  0  0  0  0
    6.8661   21.1414   21.5016 C   0  0  0  0  0  0  0  0  0  0  0  0
    6.6978   21.8453   22.6563 F   0  0  0  0  0  0  0  0  0  0  0  0
    7.7299   21.8710   20.7428 F   0  0  0  0  0  0  0  0  0  0  0  0
    7.5405   20.0106   21.8524 F   0  0  0  0  0  0  0  0  0  0  0  0
    0.7107   19.6717   19.4717 C   0  0  0  0  0  0  0  0  0  0  0  0
   -0.0826   15.9861   18.9072 C   0  0  0  0  0  0  0  0  0  0  0  0
   -0.6548   16.0949   17.6466 C   0  0  0  0  0  0  0  0  0  0  0  0
   -0.8032   17.2637   16.9762 N   0  0  0  0  0  0  0  0  0  0  0  0
   -0.3570   18.3799   17.5948 C   0  0  0  0  0  0  0  0  0  0  0  0
    0.2447   18.3865   18.8481 C   0  0  0  0  0  0  0  0  0  0  0  0
    0.3692   17.1594   19.5090 C   0  0  0  0  0  0  0  0  0  0  0  0
    0.0925   14.8474   19.6386 O   0  0  0  0  0  0  0  0  0  0  0  0
    0.5496   14.1860   21.8820 C   0  0  0  0  0  0  0  0  0  0  0  0
    1.0988   14.8832   20.6503 C   0  0  0  0  0  0  0  0  0  0  0  0
 21 22  1  0  0  0
 22 20  1  0  0  0
 20 14  1  0  0  0
 14 15  1  0  0  0
 15 16  2  0  0  0
 16 17  1  0  0  0
 17 18  2  0  0  0
 18 13  1  0  0  0
 13  1  1  0  0  0
  1  3  1  0  0  0
  3  4  1  0  0  0
  4  5  2  0  0  0
  5  6  1  0  0  0
  6  9  1  0  0  0
  9 10  1  0  0  0
  9 11  1  0  0  0
  9 12  1  0  0  0
  6  7  2  0  0  0
  7  8  1  0  0  0
 18 19  1  0  0  0
 19 14  2  0  0  0
  8  3  2  0  0  0
  1  2  1  0  0  0
M  END
> <minimizedAffinity>
-9.86257

$$$$
OCNT-2310447


 22 24  0  0  0  0  0  0  0  0999 V2000
    2.5482   15.5627   21.6726 C   0  0  0  0  0  0  0  0  0  0  0  0
    3.4038   16.7883   21.5430 C   0  0  0  0  0  0  0  0  0  0  0  0
    4.6185   16.9133   22.2198 C   0  0  0  0  0  0  0  0  0  0  0  0
    5.3933   18.0629   22.0570 C   0  0  0  0  0  0  0  0  0  0  0  0
    4.9313   19.0649   21.2083 C   0  0  0  0  0  0  0  0  0  0  0  0
    3.7582   18.9610   20.5332 N   0  0  0  0  0  0  0  0  0  0  0  0
    3.0301   17.8338   20.7078 C   0  0  0  0  0  0  0  0  0  0  0  0
    5.6885   20.2527   21.0149 N   0  0  0  0  0  0  0  0  0  0  0  0
    6.9953   20.5172   21.3641 C   0  0  0  0  0  0  0  0  0  0  0  0
    7.2387   21.8081   20.9548 C   0  0  0  0  0  0  0  0  0  0  0  0
    6.1321   22.3506   20.3662 N   0  0  0  0  0  0  0  0  0  0  0  0
    5.2218   21.4016   20.4147 C   0  0  0  0  0  0  0  0  0  0  0  0
    0.5130   14.7936   20.5026 C   0  0  0  0  0  0  0  0  0  0  0  0
   -0.0020   14.3850   21.5404 O   0  0  0  0  0  0  0  0  0  0  0  0
    1.7812   15.3331   20.4758 N   0  0  0  0  0  0  0  0  0  0  0  0
    2.0844   15.7368   19.5973 H   0  0  0  0  0  0  0  0  0  0  0  0
   -0.2503   17.2435   18.5146 C   0  0  0  0  0  0  0  0  0  0  0  0
   -0.4831   15.7893   18.3289 C   0  0  0  0  0  0  0  0  0  0  0  0
   -0.1405   14.7701   19.2074 C   0  0  0  0  0  0  0  0  0  0  0  0
   -0.5177   13.5602   18.6792 O   0  0  0  0  0  0  0  0  0  0  0  0
   -1.0955   13.8073   17.4779 C   0  0  0  0  0  0  0  0  0  0  0  0
   -1.1006   15.1550   17.2145 C   0  0  0  0  0  0  0  0  0  0  0  0
 17 18  1  0  0  0
 18 19  2  0  0  0
 19 13  1  0  0  0
 13 14  2  0  0  0
 13 15  1  0  0  0
 15  1  1  0  0  0
  1  2  1  0  0  0
  2  3  2  0  0  0
  3  4  1  0  0  0
  4  5  2  0  0  0
  5  8  1  0  0  0
  8  9  1  0  0  0
  9 10  2  0  0  0
 10 11  1  0  0  0
 11 12  2  0  0  0
  5  6  1  0  0  0
  6  7  2  0  0  0
 19 20  1  0  0  0
 20 21  1  0  0  0
 21 22  2  0  0  0
 22 18  1  0  0  0
  7  2  1  0  0  0
 12  8  1  0  0  0
 15 16  1  0  0  0
M  END
> <minimizedAffinity>
-7.82942

$$$$
OCNT-2310448


 29 32  0  0  0  0  0  0  0  0999 V2000
    3.0083   15.0066   21.9069 C   0  0  0  0  0  0  0  0  0  0  0  0
    4.0149   14.3168   22.0645 O   0  0  0  0  0  0  0  0  0  0  0  0
    2.9996   16.3880   21.7736 N   0  0  0  0  0  0  0  0  0  0  0  0
    2.0849   16.8372   21.7562 H   0  0  0  0  0  0  0  0  0  0  0  0
    4.1035   17.2672   21.8038 C   0  0  0  0  0  0  0  0  0  0  0  0
    5.3183   16.9764   22.4242 C   0  0  0  0  0  0  0  0  0  0  0  0
    6.3565   17.9109   22.4184 C   0  0  0  0  0  0  0  0  0  0  0  0
    6.1925   19.1396   21.7810 C   0  0  0  0  0  0  0  0  0  0  0  0
    4.9925   19.4439   21.1299 C   0  0  0  0  0  0  0  0  0  0  0  0
    3.9490   18.5050   21.1594 C   0  0  0  0  0  0  0  0  0  0  0  0
    4.8471   20.7372   20.4702 C   0  0  0  0  0  0  0  0  0  0  0  0
    3.7291   21.2382   19.9751 N   0  0  0  0  0  0  0  0  0  0  0  0
    4.0433   22.4664   19.4503 N   0  0  0  0  0  0  0  0  0  0  0  0
    5.3237   22.7457   19.6341 N   0  0  0  0  0  0  0  0  0  0  0  0
    5.8234   21.6848   20.2879 N   0  0  0  0  0  0  0  0  0  0  0  0
    7.1860   21.7007   20.7413 C   0  0  0  0  0  0  0  0  0  0  0  0
    1.8117   12.8091   21.6986 C   0  0  0  0  0  0  0  0  0  0  0  0
    1.6527   14.3263   21.7481 C   0  0  0  0  0  0  0  0  0  0  0  0
    0.9339   14.8381   20.5968 N   0  0  0  0  0  0  0  0  0  0  0  0
    0.0769   14.0685   19.8966 N   0  0  0  0  0  0  0  0  0  0  0  0
   -0.4138   14.8742   18.9678 N   0  0  0  0  0  0  0  0  0  0  0  0
    0.1552   16.1145   19.1664 C   0  0  0  0  0  0  0  0  0  0  0  0
    1.0063   16.1230   20.2091 N   0  0  0  0  0  0  0  0  0  0  0  0
   -0.1513   17.2698   18.3333 C   0  0  0  0  0  0  0  0  0  0  0  0
    0.8070   18.2741   18.1295 C   0  0  0  0  0  0  0  0  0  0  0  0
    0.5160   19.3839   17.3314 C   0  0  0  0  0  0  0  0  0  0  0  0
   -0.7350   19.5017   16.7290 C   0  0  0  0  0  0  0  0  0  0  0  0
   -1.6964   18.5121   16.9229 C   0  0  0  0  0  0  0  0  0  0  0  0
   -1.4066   17.4021   17.7207 C   0  0  0  0  0  0  0  0  0  0  0  0
 17 18  1  0  0  0
 18  1  1  0  0  0
  1  2  2  0  0  0
  1  3  1  0  0  0
  3  5  1  0  0  0
  5  6  2  0  0  0
  6  7  1  0  0  0
  7  8  2  0  0  0
  8  9  1  0  0  0
  9 11  1  0  0  0
 11 12  2  0  0  0
 12 13  1  0  0  0
 13 14  2  0  0  0
 14 15  1  0  0  0
 15 16  1  0  0  0
  9 10  2  0  0  0
 18 19  1  0  0  0
 19 20  1  0  0  0
 20 21  2  0  0  0
 21 22  1  0  0  0
 22 24  1  0  0  0
 24 25  2  0  0  0
 25 26  1  0  0  0
 26 27  2  0  0  0
 27 28  1  0  0  0
 28 29  2  0  0  0
 22 23  2  0  0  0
 10  5  1  0  0  0
 23 19  1  0  0  0
 15 11  1  0  0  0
 29 24  1  0  0  0
  3  4  1  0  0  0
M  END
> <minimizedAffinity>
-7.91999

$$$$
OCNT-2310449


 27 29  0  0  0  0  0  0  0  0999 V2000
    3.1277   17.6406   20.7331 N   0  0  0  0  0  0  0  0  0  0  0  0
    4.1720   17.1392   21.4861 C   0  0  0  0  0  0  0  0  0  0  0  0
    4.3159   15.9903   21.8854 O   0  0  0  0  0  0  0  0  0  0  0  0
    3.2142   18.6292   20.5101 H   0  0  0  0  0  0  0  0  0  0  0  0
    0.0934   17.0105   18.7146 C   0  0  0  0  0  0  0  0  0  0  0  0
   -0.2987   15.7511   19.1841 C   0  0  0  0  0  0  0  0  0  0  0  0
    0.4432   15.1055   20.1736 C   0  0  0  0  0  0  0  0  0  0  0  0
    1.5849   15.7109   20.7046 C   0  0  0  0  0  0  0  0  0  0  0  0
    1.9933   16.9650   20.2510 C   0  0  0  0  0  0  0  0  0  0  0  0
    1.2428   17.6072   19.2571 C   0  0  0  0  0  0  0  0  0  0  0  0
   -3.5155   19.1405   16.3068 C   0  0  0  0  0  0  0  0  0  0  0  0
   -2.2083   18.6259   16.6129 N   0  0  0  0  0  0  0  0  0  0  0  0
   -1.0971   18.6558   15.8376 C   0  0  0  0  0  0  0  0  0  0  0  0
   -0.1067   18.0812   16.4778 N   0  0  0  0  0  0  0  0  0  0  0  0
   -0.6712   17.7002   17.6798 C   0  0  0  0  0  0  0  0  0  0  0  0
   -1.9707   18.0263   17.7898 N   0  0  0  0  0  0  0  0  0  0  0  0
    5.2050   18.1795   21.8110 C   0  0  0  0  0  0  0  0  0  0  0  0
    6.4335   17.7969   22.3374 C   0  0  0  0  0  0  0  0  0  0  0  0
    7.3607   18.7917   22.6263 C   0  0  0  0  0  0  0  0  0  0  0  0
    7.0287   20.1206   22.3805 C   0  0  0  0  0  0  0  0  0  0  0  0
    5.7787   20.4067   21.8505 C   0  0  0  0  0  0  0  0  0  0  0  0
    4.8508   19.4734   21.5591 N   0  0  0  0  0  0  0  0  0  0  0  0
    5.5008   21.7412   21.6374 O   0  0  0  0  0  0  0  0  0  0  0  0
    5.0972   22.0328   20.2934 C   0  0  0  0  0  0  0  0  0  0  0  0
    3.7484   21.3871   20.0299 C   0  0  0  0  0  0  0  0  0  0  0  0
    3.8287   20.5824   18.9397 F   0  0  0  0  0  0  0  0  0  0  0  0
    2.8274   22.3417   19.7358 F   0  0  0  0  0  0  0  0  0  0  0  0
 11 12  1  0  0  0
 12 13  1  0  0  0
 13 14  2  0  0  0
 14 15  1  0  0  0
 15  5  1  0  0  0
  5  6  1  0  0  0
  6  7  2  0  0  0
  7  8  1  0  0  0
  8  9  2  0  0  0
  9  1  1  0  0  0
  1  2  1  0  0  0
  2  3  2  0  0  0
  2 17  1  0  0  0
 17 18  2  0  0  0
 18 19  1  0  0  0
 19 20  2  0  0  0
 20 21  1  0  0  0
 21 23  1  0  0  0
 23 24  1  0  0  0
 24 25  1  0  0  0
 25 26  1  0  0  0
 25 27  1  0  0  0
 21 22  2  0  0  0
  9 10  1  0  0  0
 15 16  2  0  0  0
 16 12  1  0  0  0
 10  5  2  0  0  0
 22 17  1  0  0  0
  1  4  1  0  0  0
M  END
> <minimizedAffinity>
-8.20689

$$$$
OCNT-2310451


 23 25  0  0  0  0  0  0  0  0999 V2000
    0.7153   18.8321   17.9451 C   0  0  0  0  0  0  0  0  0  0  0  0
    1.3469   18.0063   19.0127 C   0  0  0  0  0  0  0  0  0  0  0  0
    2.4680   18.3570   19.7588 C   0  0  0  0  0  0  0  0  0  0  0  0
    2.6690   17.3516   20.6739 N   0  0  0  0  0  0  0  0  0  0  0  0
    1.7805   16.3225   20.4821 C   0  0  0  0  0  0  0  0  0  0  0  0
    1.6520   15.0968   21.1449 C   0  0  0  0  0  0  0  0  0  0  0  0
    2.7329   14.6527   22.4042 Cl  0  0  0  0  0  0  0  0  0  0  0  0
    0.6252   14.2366   20.7531 C   0  0  0  0  0  0  0  0  0  0  0  0
   -0.2490   14.5989   19.7309 C   0  0  0  0  0  0  0  0  0  0  0  0
   -0.1111   15.8299   19.0764 C   0  0  0  0  0  0  0  0  0  0  0  0
    0.9252   16.7105   19.4530 C   0  0  0  0  0  0  0  0  0  0  0  0
    3.3632   17.3672   21.4083 H   0  0  0  0  0  0  0  0  0  0  0  0
    3.2491   19.5741   19.6976 C   0  0  0  0  0  0  0  0  0  0  0  0
    3.0639   20.4160   18.8223 O   0  0  0  0  0  0  0  0  0  0  0  0
    4.2118   19.7653   20.6745 N   0  0  0  0  0  0  0  0  0  0  0  0
    4.8585   21.0619   20.8042 C   0  0  0  0  0  0  0  0  0  0  0  0
    5.4434   21.0442   22.2041 C   0  0  0  0  0  0  0  0  0  0  0  0
    6.5079   21.8695   22.3059 F   0  0  0  0  0  0  0  0  0  0  0  0
    5.8742   19.5974   22.3672 C   0  0  0  0  0  0  0  0  0  0  0  0
    4.7827   18.8011   21.6267 C   0  0  0  0  0  0  0  0  0  0  0  0
    5.3884   17.5404   20.9883 C   0  0  0  0  0  0  0  0  0  0  0  0
    5.2699   16.4331   21.8773 O   0  0  0  0  0  0  0  0  0  0  0  0
    4.4078   16.0132   21.7091 H   0  0  0  0  0  0  0  0  0  0  0  0
  1  2  1  0  0  0
  2  3  2  0  0  0
  3 13  1  0  0  0
 13 14  2  0  0  0
 13 15  1  0  0  0
 15 16  1  0  0  0
 16 17  1  0  0  0
 17 18  1  0  0  0
 17 19  1  0  0  0
 19 20  1  0  0  0
 20 21  1  0  0  0
 21 22  1  0  0  0
  3  4  1  0  0  0
  4  5  1  0  0  0
  5  6  2  0  0  0
  6  7  1  0  0  0
  6  8  1  0  0  0
  8  9  2  0  0  0
  9 10  1  0  0  0
 10 11  2  0  0  0
 11  2  1  0  0  0
 20 15  1  0  0  0
 11  5  1  0  0  0
 22 23  1  0  0  0
  4 12  1  0  0  0
M  END
> <minimizedAffinity>
-10.81129

$$$$
OCNT-2310458


 26 28  0  0  0  0  0  0  0  0999 V2000
    0.9457   17.4699   18.1844 N   0  0  0  0  0  0  0  0  0  0  0  0
    1.7455   17.3316   17.5666 H   0  0  0  0  0  0  0  0  0  0  0  0
    1.5534   15.3345   21.1709 C   0  0  0  0  0  0  0  0  0  0  0  0
    1.6189   16.3710   20.2194 C   0  0  0  0  0  0  0  0  0  0  0  0
    0.7232   16.4357   19.1477 C   0  0  0  0  0  0  0  0  0  0  0  0
   -0.2076   15.4108   18.9956 C   0  0  0  0  0  0  0  0  0  0  0  0
   -0.2891   14.3757   19.9361 C   0  0  0  0  0  0  0  0  0  0  0  0
    0.5832   14.3293   21.0259 C   0  0  0  0  0  0  0  0  0  0  0  0
    0.5635   13.3659   21.9973 O   0  0  0  0  0  0  0  0  0  0  0  0
   -0.3015   13.5665   23.1073 C   0  0  0  0  0  0  0  0  0  0  0  0
    2.5468   15.3119   22.3109 C   0  0  0  0  0  0  0  0  0  0  0  0
    4.7024   16.0789   21.6532 C   0  0  0  0  0  0  0  0  0  0  0  0
    3.8600   14.9587   21.8761 O   0  0  0  0  0  0  0  0  0  0  0  0
    0.8172   19.1061   18.5652 S   0  0  0  0  0  0  0  0  0  0  0  0
    0.7206   19.8786   17.3472 O   0  0  0  0  0  0  0  0  0  0  0  0
   -0.1850   19.1868   19.6060 O   0  0  0  0  0  0  0  0  0  0  0  0
    2.3301   19.5882   19.3605 C   0  0  0  0  0  0  0  0  0  0  0  0
    3.3034   18.8653   20.0179 C   0  0  0  0  0  0  0  0  0  0  0  0
    4.3714   19.6829   20.5145 C   0  0  0  0  0  0  0  0  0  0  0  0
    5.5451   19.3318   21.2240 C   0  0  0  0  0  0  0  0  0  0  0  0
    6.4523   20.3224   21.6080 C   0  0  0  0  0  0  0  0  0  0  0  0
    7.8756   19.8794   22.4688 Cl  0  0  0  0  0  0  0  0  0  0  0  0
    6.2200   21.6561   21.3040 C   0  0  0  0  0  0  0  0  0  0  0  0
    5.0688   22.0297   20.6055 C   0  0  0  0  0  0  0  0  0  0  0  0
    4.1538   21.0313   20.2174 C   0  0  0  0  0  0  0  0  0  0  0  0
    2.6790   21.2554   19.3580 S   0  0  0  0  0  0  0  0  0  0  0  0
 12 13  1  0  0  0
 13 11  1  0  0  0
 11  3  1  0  0  0
  3  4  1  0  0  0
  4  5  2  0  0  0
  5  1  1  0  0  0
  1 14  1  0  0  0
 14 15  2  0  0  0
 14 16  2  0  0  0
 14 17  1  0  0  0
 17 18  2  0  0  0
 18 19  1  0  0  0
 19 20  2  0  0  0
 20 21  1  0  0  0
 21 22  1  0  0  0
 21 23  2  0  0  0
 23 24  1  0  0  0
 24 25  2  0  0  0
 25 26  1  0  0  0
  5  6  1  0  0  0
  6  7  2  0  0  0
  7  8  1  0  0  0
  8  9  1  0  0  0
  9 10  1  0  0  0
  8  3  2  0  0  0
 26 17  1  0  0  0
 25 19  1  0  0  0
  1  2  1  0  0  0
M  END
> <minimizedAffinity>
-7.45297

$$$$
OCNT-2310463


 22 24  0  0  0  0  0  0  0  0999 V2000
    0.9998   16.0700   19.8596 C   0  0  0  0  0  0  0  0  0  0  0  0
    0.9816   14.8950   20.6222 C   0  0  0  0  0  0  0  0  0  0  0  0
    1.9243   14.6871   21.6288 C   0  0  0  0  0  0  0  0  0  0  0  0
    2.8996   15.6525   21.8875 C   0  0  0  0  0  0  0  0  0  0  0  0
    2.9396   16.8309   21.1427 C   0  0  0  0  0  0  0  0  0  0  0  0
    1.9877   17.0312   20.1324 C   0  0  0  0  0  0  0  0  0  0  0  0
   -1.9086   18.6776   17.0386 C   0  0  0  0  0  0  0  0  0  0  0  0
   -1.3027   17.4374   17.5466 C   0  0  0  0  0  0  0  0  0  0  0  0
   -1.4331   16.1017   17.2539 C   0  0  0  0  0  0  0  0  0  0  0  0
   -0.6041   15.3629   18.0585 N   0  0  0  0  0  0  0  0  0  0  0  0
    0.0016   16.2636   18.8111 C   0  0  0  0  0  0  0  0  0  0  0  0
   -0.3811   17.5558   18.5486 O   0  0  0  0  0  0  0  0  0  0  0  0
    3.8885   17.8495   21.3415 N   0  0  0  0  0  0  0  0  0  0  0  0
    4.0879   18.9941   20.5923 C   0  0  0  0  0  0  0  0  0  0  0  0
    3.4699   19.3495   19.5966 O   0  0  0  0  0  0  0  0  0  0  0  0
    4.5223   17.7552   22.1329 H   0  0  0  0  0  0  0  0  0  0  0  0
    5.1971   19.8433   21.1152 C   0  0  0  0  0  0  0  0  0  0  0  0
    5.2990   21.1741   20.7388 C   0  0  0  0  0  0  0  0  0  0  0  0
    6.2942   21.9786   21.1935 N   0  0  0  0  0  0  0  0  0  0  0  0
    7.1754   21.3918   22.0364 C   0  0  0  0  0  0  0  0  0  0  0  0
    7.0735   20.0605   22.4129 C   0  0  0  0  0  0  0  0  0  0  0  0
    6.0865   19.2480   21.9667 N   0  0  0  0  0  0  0  0  0  0  0  0
  7  8  1  0  0  0
  8  9  2  0  0  0
  9 10  1  0  0  0
 10 11  2  0  0  0
 11  1  1  0  0  0
  1  2  1  0  0  0
  2  3  2  0  0  0
  3  4  1  0  0  0
  4  5  2  0  0  0
  5 13  1  0  0  0
 13 14  1  0  0  0
 14 15  2  0  0  0
 14 17  1  0  0  0
 17 18  2  0  0  0
 18 19  1  0  0  0
 19 20  2  0  0  0
 20 21  1  0  0  0
 21 22  2  0  0  0
  5  6  1  0  0  0
 11 12  1  0  0  0
 12  8  1  0  0  0
  6  1  2  0  0  0
 22 17  1  0  0  0
 13 16  1  0  0  0
M  END
> <minimizedAffinity>
-9.23227

$$$$
OCNT-2310481


 28 30  0  0  0  0  0  0  0  0999 V2000
    0.4357   14.9881   19.1296 N   0  0  0  0  0  0  0  0  0  0  0  0
    0.8644   15.4992   20.3235 C   0  0  0  0  0  0  0  0  0  0  0  0
    0.3741   16.4768   20.8706 O   0  0  0  0  0  0  0  0  0  0  0  0
    1.9136   14.7745   20.8253 N   0  0  0  0  0  0  0  0  0  0  0  0
    0.6519   14.0203   18.9517 H   0  0  0  0  0  0  0  0  0  0  0  0
    2.4786   14.3054   20.1340 H   0  0  0  0  0  0  0  0  0  0  0  0
   -0.7003   15.5571   18.4296 C   0  0  0  0  0  0  0  0  0  0  0  0
   -1.0149   14.8146   17.1323 C   0  0  0  0  0  0  0  0  0  0  0  0
   -2.5768   17.9366   17.0425 C   0  0  0  0  0  0  0  0  0  0  0  0
   -1.2205   18.0380   17.6382 C   0  0  0  0  0  0  0  0  0  0  0  0
   -0.6031   19.2262   17.6491 N   0  0  0  0  0  0  0  0  0  0  0  0
    0.5743   18.9820   18.2426 N   0  0  0  0  0  0  0  0  0  0  0  0
    1.5140   20.0605   18.4268 C   0  0  0  0  0  0  0  0  0  0  0  0
    0.7349   17.6818   18.6078 C   0  0  0  0  0  0  0  0  0  0  0  0
   -0.4203   17.0176   18.2363 C   0  0  0  0  0  0  0  0  0  0  0  0
    2.5908   15.1926   22.0323 C   0  0  0  0  0  0  0  0  0  0  0  0
    3.3800   16.4567   21.8054 C   0  0  0  0  0  0  0  0  0  0  0  0
    3.9435   17.1476   22.8836 C   0  0  0  0  0  0  0  0  0  0  0  0
    4.6559   18.3372   22.6837 C   0  0  0  0  0  0  0  0  0  0  0  0
    4.8169   18.8682   21.3933 C   0  0  0  0  0  0  0  0  0  0  0  0
    4.2427   18.1743   20.3214 C   0  0  0  0  0  0  0  0  0  0  0  0
    4.3360   18.6065   19.0570 F   0  0  0  0  0  0  0  0  0  0  0  0
    3.5318   16.9882   20.5218 C   0  0  0  0  0  0  0  0  0  0  0  0
    5.5429   20.0805   21.2005 N   0  0  0  0  0  0  0  0  0  0  0  0
    6.8119   20.3982   21.6380 C   0  0  0  0  0  0  0  0  0  0  0  0
    7.0686   21.6764   21.2031 C   0  0  0  0  0  0  0  0  0  0  0  0
    6.0069   22.1721   20.5091 N   0  0  0  0  0  0  0  0  0  0  0  0
    5.1143   21.2065   20.5225 C   0  0  0  0  0  0  0  0  0  0  0  0
  9 10  1  0  0  0
 10 11  2  0  0  0
 11 12  1  0  0  0
 12 13  1  0  0  0
 12 14  1  0  0  0
 14 15  2  0  0  0
 15  7  1  0  0  0
  7  8  1  0  0  0
  7  1  1  0  0  0
  1  2  1  0  0  0
  2  3  2  0  0  0
  2  4  1  0  0  0
  4 16  1  0  0  0
 16 17  1  0  0  0
 17 18  1  0  0  0
 18 19  2  0  0  0
 19 20  1  0  0  0
 20 24  1  0  0  0
 24 25  1  0  0  0
 25 26  2  0  0  0
 26 27  1  0  0  0
 27 28  2  0  0  0
 20 21  2  0  0  0
 21 22  1  0  0  0
 21 23  1  0  0  0
 15 10  1  0  0  0
 23 17  2  0  0  0
 28 24  1  0  0  0
  1  5  1  0  0  0
  4  6  1  0  0  0
M  END
> <minimizedAffinity>
-6.50582

$$$$
OCNT-2310488


 27 30  0  0  0  0  0  0  0  0999 V2000
    2.0099   15.1951   20.9033 N   0  0  0  0  0  0  0  0  0  0  0  0
    0.8231   14.5664   21.1952 C   0  0  0  0  0  0  0  0  0  0  0  0
    0.5134   14.1994   22.3266 O   0  0  0  0  0  0  0  0  0  0  0  0
    2.1981   15.5093   19.9585 H   0  0  0  0  0  0  0  0  0  0  0  0
    4.0585   14.3923   22.0049 C   0  0  0  0  0  0  0  0  0  0  0  0
    3.0009   15.4918   21.9186 C   0  0  0  0  0  0  0  0  0  0  0  0
    3.6279   16.8056   21.5775 C   0  0  0  0  0  0  0  0  0  0  0  0
    3.2881   17.8146   20.6970 C   0  0  0  0  0  0  0  0  0  0  0  0
    4.2730   18.8302   20.8382 C   0  0  0  0  0  0  0  0  0  0  0  0
    4.5076   20.0915   20.2618 C   0  0  0  0  0  0  0  0  0  0  0  0
    5.6262   20.8137   20.6902 C   0  0  0  0  0  0  0  0  0  0  0  0
    5.8644   22.0187   20.1542 F   0  0  0  0  0  0  0  0  0  0  0  0
    6.5013   20.3196   21.6570 C   0  0  0  0  0  0  0  0  0  0  0  0
    6.2867   19.0655   22.2387 C   0  0  0  0  0  0  0  0  0  0  0  0
    5.1636   18.3627   21.7998 C   0  0  0  0  0  0  0  0  0  0  0  0
    4.7791   17.1340   22.2431 O   0  0  0  0  0  0  0  0  0  0  0  0
   -0.0782   14.3474   19.9935 C   0  0  0  0  0  0  0  0  0  0  0  0
   -0.1400   15.5510   19.0811 C   0  0  0  0  0  0  0  0  0  0  0  0
   -0.6073   15.4219   17.7626 C   0  0  0  0  0  0  0  0  0  0  0  0
   -0.6605   16.5192   16.8936 C   0  0  0  0  0  0  0  0  0  0  0  0
   -0.2252   17.7507   17.3951 C   0  0  0  0  0  0  0  0  0  0  0  0
   -0.1386   18.9925   16.8206 N   0  0  0  0  0  0  0  0  0  0  0  0
    0.3377   19.9478   17.6400 N   0  0  0  0  0  0  0  0  0  0  0  0
    0.5658   19.2907   18.7807 C   0  0  0  0  0  0  0  0  0  0  0  0
    0.2378   17.9185   18.6950 C   0  0  0  0  0  0  0  0  0  0  0  0
    0.2810   16.8090   19.5573 C   0  0  0  0  0  0  0  0  0  0  0  0
   -0.3899   19.2541   15.8734 H   0  0  0  0  0  0  0  0  0  0  0  0
  5  6  1  0  0  0
  6  1  1  0  0  0
  1  2  1  0  0  0
  2  3  2  0  0  0
  2 17  1  0  0  0
 17 18  1  0  0  0
 18 19  2  0  0  0
 19 20  1  0  0  0
 20 21  2  0  0  0
 21 22  1  0  0  0
 22 23  1  0  0  0
 23 24  2  0  0  0
 24 25  1  0  0  0
 25 26  2  0  0  0
  6  7  1  0  0  0
  7  8  2  0  0  0
  8  9  1  0  0  0
  9 10  2  0  0  0
 10 11  1  0  0  0
 11 12  1  0  0  0
 11 13  2  0  0  0
 13 14  1  0  0  0
 14 15  2  0  0  0
 15 16  1  0  0  0
 26 18  1  0  0  0
 16  7  1  0  0  0
 25 21  1  0  0  0
 15  9  1  0  0  0
  1  4  1  0  0  0
 22 27  1  0  0  0
M  END
> <minimizedAffinity>
-12.25313

$$$$
OCNT-2310507


 23 24  0  0  0  0  0  0  0  0999 V2000
    2.4609   20.5652   19.4805 N   0  0  0  0  0  0  0  0  0  0  0  0
    1.8638   19.5479   18.7741 C   0  0  0  0  0  0  0  0  0  0  0  0
    2.3357   18.4607   18.4700 O   0  0  0  0  0  0  0  0  0  0  0  0
    0.5815   19.9249   18.3912 N   0  0  0  0  0  0  0  0  0  0  0  0
    2.0187   21.4666   19.4429 H   0  0  0  0  0  0  0  0  0  0  0  0
    0.0928   20.4506   19.1031 H   0  0  0  0  0  0  0  0  0  0  0  0
    7.0599   21.7537   20.9814 C   0  0  0  0  0  0  0  0  0  0  0  0
    5.7500   21.1157   20.7163 C   0  0  0  0  0  0  0  0  0  0  0  0
    4.6627   21.5424   19.9828 C   0  0  0  0  0  0  0  0  0  0  0  0
    3.6992   20.5084   20.0807 C   0  0  0  0  0  0  0  0  0  0  0  0
    4.1523   19.5139   20.8408 N   0  0  0  0  0  0  0  0  0  0  0  0
    5.3868   19.8884   21.2049 N   0  0  0  0  0  0  0  0  0  0  0  0
    6.1745   19.0066   22.0339 C   0  0  0  0  0  0  0  0  0  0  0  0
   -0.2756   18.9490   17.7348 C   0  0  0  0  0  0  0  0  0  0  0  0
   -0.8848   17.9663   18.7539 C   0  0  0  0  0  0  0  0  0  0  0  0
    0.0365   16.8609   19.1067 N   0  0  0  0  0  0  0  0  0  0  0  0
   -0.0028   15.7848   18.0899 C   0  0  0  0  0  0  0  0  0  0  0  0
   -0.5804   14.4564   18.5999 C   0  0  0  0  0  0  0  0  0  0  0  0
    0.1296   13.9464   19.7319 O   0  0  0  0  0  0  0  0  0  0  0  0
    0.4615   14.9475   20.7146 C   0  0  0  0  0  0  0  0  0  0  0  0
    0.0017   14.3932   22.0685 C   0  0  0  0  0  0  0  0  0  0  0  0
    1.9894   15.0922   20.7283 C   0  0  0  0  0  0  0  0  0  0  0  0
   -0.2388   16.3136   20.4521 C   0  0  0  0  0  0  0  0  0  0  0  0
  7  8  1  0  0  0
  8  9  2  0  0  0
  9 10  1  0  0  0
 10  1  1  0  0  0
  1  2  1  0  0  0
  2  3  2  0  0  0
  2  4  1  0  0  0
  4 14  1  0  0  0
 14 15  1  0  0  0
 15 16  1  0  0  0
 16 17  1  0  0  0
 17 18  1  0  0  0
 18 19  1  0  0  0
 19 20  1  0  0  0
 20 21  1  0  0  0
 20 22  1  0  0  0
 20 23  1  0  0  0
 10 11  2  0  0  0
 11 12  1  0  0  0
 12 13  1  0  0  0
 12  8  1  0  0  0
 23 16  1  0  0  0
  1  5  1  0  0  0
  4  6  1  0  0  0
M  END
> <minimizedAffinity>
-6.39179

$$$$
OCNT-2310514


 31 33  0  0  0  0  0  0  0  0999 V2000
    4.2165   17.9044   23.4257 O   0  0  0  0  0  0  0  0  0  0  0  0
    4.5090   17.5346   22.2966 C   0  0  0  0  0  0  0  0  0  0  0  0
    3.9258   16.4791   21.6476 N   0  0  0  0  0  0  0  0  0  0  0  0
    5.4659   18.1257   21.5098 N   0  0  0  0  0  0  0  0  0  0  0  0
    3.9637   16.5308   20.6412 H   0  0  0  0  0  0  0  0  0  0  0  0
    5.9742   17.4697   20.9241 H   0  0  0  0  0  0  0  0  0  0  0  0
    2.8078   15.7723   22.2269 C   0  0  0  0  0  0  0  0  0  0  0  0
    1.7790   15.4243   21.1790 C   0  0  0  0  0  0  0  0  0  0  0  0
    1.2424   14.1329   21.1246 C   0  0  0  0  0  0  0  0  0  0  0  0
    0.2775   13.8109   20.1737 C   0  0  0  0  0  0  0  0  0  0  0  0
   -0.1687   14.7759   19.2675 C   0  0  0  0  0  0  0  0  0  0  0  0
    0.3475   16.0792   19.3081 C   0  0  0  0  0  0  0  0  0  0  0  0
    1.3204   16.3953   20.2714 C   0  0  0  0  0  0  0  0  0  0  0  0
   -0.1091   17.0689   18.3880 N   0  0  0  0  0  0  0  0  0  0  0  0
   -1.2580   17.8291   18.4727 C   0  0  0  0  0  0  0  0  0  0  0  0
   -1.2696   18.6375   17.3607 C   0  0  0  0  0  0  0  0  0  0  0  0
   -0.1716   18.4097   16.5859 N   0  0  0  0  0  0  0  0  0  0  0  0
    0.5024   17.4740   17.2187 C   0  0  0  0  0  0  0  0  0  0  0  0
    6.3052   19.1810   22.0446 C   0  0  0  0  0  0  0  0  0  0  0  0
    5.8534   20.5739   21.5628 C   0  0  0  0  0  0  0  0  0  0  0  0
    6.9557   21.6209   21.7967 C   0  0  0  0  0  0  0  0  0  0  0  0
    7.5692   22.0015   20.5647 O   0  0  0  0  0  0  0  0  0  0  0  0
    8.3336   22.5583   20.8004 H   0  0  0  0  0  0  0  0  0  0  0  0
    5.4561   20.4954   20.0747 C   0  0  0  0  0  0  0  0  0  0  0  0
    3.9669   20.6168   19.8320 C   0  0  0  0  0  0  0  0  0  0  0  0
    3.3425   21.8413   20.1344 C   0  0  0  0  0  0  0  0  0  0  0  0
    1.9733   22.0205   19.9309 C   0  0  0  0  0  0  0  0  0  0  0  0
    1.2032   20.9799   19.4212 C   0  0  0  0  0  0  0  0  0  0  0  0
    1.8040   19.7601   19.1135 C   0  0  0  0  0  0  0  0  0  0  0  0
    3.1764   19.5770   19.3156 C   0  0  0  0  0  0  0  0  0  0  0  0
    3.8412   18.0400   18.8892 Cl  0  0  0  0  0  0  0  0  0  0  0  0
  1  2  2  0  0  0
  2  3  1  0  0  0
  3  7  1  0  0  0
  7  8  1  0  0  0
  8  9  2  0  0  0
  9 10  1  0  0  0
 10 11  2  0  0  0
 11 12  1  0  0  0
 12 14  1  0  0  0
 14 15  1  0  0  0
 15 16  2  0  0  0
 16 17  1  0  0  0
 17 18  2  0  0  0
 12 13  2  0  0  0
  2  4  1  0  0  0
  4 19  1  0  0  0
 19 20  1  0  0  0
 20 21  1  0  0  0
 21 22  1  0  0  0
 20 24  1  0  0  0
 24 25  1  0  0  0
 25 26  2  0  0  0
 26 27  1  0  0  0
 27 28  2  0  0  0
 28 29  1  0  0  0
 29 30  2  0  0  0
 30 31  1  0  0  0
 13  8  1  0  0  0
 30 25  1  0  0  0
 18 14  1  0  0  0
  3  5  1  0  0  0
  4  6  1  0  0  0
 22 23  1  0  0  0
M  END
> <minimizedAffinity>
-8.09673

$$$$
OCNT-2310518


 31 33  0  0  0  0  0  0  0  0999 V2000
    2.6717   19.9857   19.1039 C   0  0  0  0  0  0  0  0  0  0  0  0
    2.5956   21.1711   19.8493 C   0  0  0  0  0  0  0  0  0  0  0  0
    3.7109   21.6216   20.5606 C   0  0  0  0  0  0  0  0  0  0  0  0
    4.8944   20.8761   20.5352 C   0  0  0  0  0  0  0  0  0  0  0  0
    4.9801   19.6944   19.7936 C   0  0  0  0  0  0  0  0  0  0  0  0
    3.8622   19.2450   19.0880 C   0  0  0  0  0  0  0  0  0  0  0  0
    1.5817   18.1462   17.9388 N   0  0  0  0  0  0  0  0  0  0  0  0
    1.5076   19.4639   18.3383 C   0  0  0  0  0  0  0  0  0  0  0  0
    0.5431   20.1880   18.1228 O   0  0  0  0  0  0  0  0  0  0  0  0
    2.3411   17.5667   18.2692 H   0  0  0  0  0  0  0  0  0  0  0  0
    0.4952   17.4967   17.2224 C   0  0  0  0  0  0  0  0  0  0  0  0
   -1.3153   15.6810   17.3187 C   0  0  0  0  0  0  0  0  0  0  0  0
   -0.5278   16.7387   18.1255 C   0  0  0  0  0  0  0  0  0  0  0  0
   -1.5669   17.7519   18.6649 C   0  0  0  0  0  0  0  0  0  0  0  0
    0.2622   16.0357   19.2499 C   0  0  0  0  0  0  0  0  0  0  0  0
    1.2728   16.6686   19.9859 C   0  0  0  0  0  0  0  0  0  0  0  0
    1.9444   15.9598   20.9751 C   0  0  0  0  0  0  0  0  0  0  0  0
    1.6928   14.6729   21.2850 N   0  0  0  0  0  0  0  0  0  0  0  0
    0.7223   14.0677   20.5740 C   0  0  0  0  0  0  0  0  0  0  0  0
   -0.0028   14.6925   19.5684 C   0  0  0  0  0  0  0  0  0  0  0  0
    6.3155   21.4626   21.4258 S   0  0  0  0  0  0  0  0  0  0  0  0
    7.2702   22.0012   20.4822 O   0  0  0  0  0  0  0  0  0  0  0  0
    5.8259   22.2668   22.5269 O   0  0  0  0  0  0  0  0  0  0  0  0
    6.9284   20.0479   22.1190 N   0  0  0  0  0  0  0  0  0  0  0  0
    7.8754   19.8674   21.7872 H   0  0  0  0  0  0  0  0  0  0  0  0
    6.0574   18.9296   22.2260 C   0  0  0  0  0  0  0  0  0  0  0  0
    6.3334   17.7574   21.5230 C   0  0  0  0  0  0  0  0  0  0  0  0
    5.4542   16.6769   21.6061 C   0  0  0  0  0  0  0  0  0  0  0  0
    4.3018   16.7726   22.3868 C   0  0  0  0  0  0  0  0  0  0  0  0
    4.0254   17.9490   23.0835 C   0  0  0  0  0  0  0  0  0  0  0  0
    4.9030   19.0308   23.0011 C   0  0  0  0  0  0  0  0  0  0  0  0
 12 13  1  0  0  0
 13 14  1  0  0  0
 13 11  1  0  0  0
 11  7  1  0  0  0
  7  8  1  0  0  0
  8  9  2  0  0  0
  8  1  1  0  0  0
  1  2  1  0  0  0
  2  3  2  0  0  0
  3  4  1  0  0  0
  4 21  1  0  0  0
 21 22  2  0  0  0
 21 23  2  0  0  0
 21 24  1  0  0  0
 24 26  1  0  0  0
 26 27  2  0  0  0
 27 28  1  0  0  0
 28 29  2  0  0  0
 29 30  1  0  0  0
 30 31  2  0  0  0
  4  5  2  0  0  0
  5  6  1  0  0  0
 13 15  1  0  0  0
 15 16  2  0  0  0
 16 17  1  0  0  0
 17 18  2  0  0  0
 18 19  1  0  0  0
 19 20  2  0  0  0
  6  1  2  0  0  0
 20 15  1  0  0  0
 31 26  1  0  0  0
  7 10  1  0  0  0
 24 25  1  0  0  0
M  END
> <minimizedAffinity>
-7.33105

$$$$
OCNT-2310526


 26 29  0  0  0  0  0  0  0  0999 V2000
    0.5325   14.8730   21.4972 C   0  0  0  0  0  0  0  0  0  0  0  0
    2.0300   15.2534   21.5609 C   0  0  0  0  0  0  0  0  0  0  0  0
    2.5263   15.9843   20.3151 C   0  0  0  0  0  0  0  0  0  0  0  0
    1.5002   16.8742   19.7908 N   0  0  0  0  0  0  0  0  0  0  0  0
    1.7583   18.1399   19.2605 C   0  0  0  0  0  0  0  0  0  0  0  0
    1.0673   18.5999   18.3515 O   0  0  0  0  0  0  0  0  0  0  0  0
    0.2609   16.2264   19.3769 C   0  0  0  0  0  0  0  0  0  0  0  0
    0.0338   14.8682   20.0466 C   0  0  0  0  0  0  0  0  0  0  0  0
    2.8450   18.9204   19.8138 C   0  0  0  0  0  0  0  0  0  0  0  0
    3.2931   20.2092   19.5550 C   0  0  0  0  0  0  0  0  0  0  0  0
    4.4335   20.4585   20.3645 C   0  0  0  0  0  0  0  0  0  0  0  0
    5.3052   21.5387   20.5715 C   0  0  0  0  0  0  0  0  0  0  0  0
    6.3463   21.3602   21.4839 C   0  0  0  0  0  0  0  0  0  0  0  0
    6.4726   20.1383   22.1336 C   0  0  0  0  0  0  0  0  0  0  0  0
    5.6636   19.0671   21.9660 N   0  0  0  0  0  0  0  0  0  0  0  0
    4.6792   19.2924   21.0772 C   0  0  0  0  0  0  0  0  0  0  0  0
    3.7409   18.3722   20.7093 N   0  0  0  0  0  0  0  0  0  0  0  0
    3.7105   17.4214   21.0484 H   0  0  0  0  0  0  0  0  0  0  0  0
    0.3027   13.5330   22.2166 C   0  0  0  0  0  0  0  0  0  0  0  0
   -1.4786   11.4622   23.3547 O   0  0  0  0  0  0  0  0  0  0  0  0
   -1.3558   12.5726   23.8386 C   0  0  0  0  0  0  0  0  0  0  0  0
   -1.9960   13.0137   24.9855 N   0  0  0  0  0  0  0  0  0  0  0  0
   -1.8252   14.4302   25.1579 C   0  0  0  0  0  0  0  0  0  0  0  0
   -0.6660   14.7757   24.2296 C   0  0  0  0  0  0  0  0  0  0  0  0
   -0.5808   13.6211   23.3613 N   0  0  0  0  0  0  0  0  0  0  0  0
   -2.7422   12.4533   25.3749 H   0  0  0  0  0  0  0  0  0  0  0  0
 20 21  2  0  0  0
 21 22  1  0  0  0
 22 23  1  0  0  0
 23 24  1  0  0  0
 24 25  1  0  0  0
 25 19  1  0  0  0
 19  1  1  0  0  0
  1  2  1  0  0  0
  2  3  1  0  0  0
  3  4  1  0  0  0
  4  5  1  0  0  0
  5  6  2  0  0  0
  5  9  1  0  0  0
  9 10  2  0  0  0
 10 11  1  0  0  0
 11 12  1  0  0  0
 12 13  2  0  0  0
 13 14  1  0  0  0
 14 15  2  0  0  0
 15 16  1  0  0  0
 16 17  1  0  0  0
  4  7  1  0  0  0
  7  8  1  0  0  0
 25 21  1  0  0  0
  8  1  1  0  0  0
 17  9  1  0  0  0
 16 11  2  0  0  0
 22 26  1  0  0  0
 17 18  1  0  0  0
M  END
> <minimizedAffinity>
-7.31885

$$$$
OCNT-2310534


 28 31  0  0  0  0  0  0  0  0999 V2000
    3.3452   16.6619   21.7960 N   0  0  0  0  0  0  0  0  0  0  0  0
    2.8065   15.3943   21.7816 C   0  0  0  0  0  0  0  0  0  0  0  0
    3.2146   14.4603   22.4618 O   0  0  0  0  0  0  0  0  0  0  0  0
    2.9753   17.3060   21.1009 H   0  0  0  0  0  0  0  0  0  0  0  0
    1.6584   15.2338   20.8320 C   0  0  0  0  0  0  0  0  0  0  0  0
    0.9562   14.0391   20.7833 C   0  0  0  0  0  0  0  0  0  0  0  0
   -0.0918   13.9392   19.8770 C   0  0  0  0  0  0  0  0  0  0  0  0
   -0.3951   15.0281   19.0596 C   0  0  0  0  0  0  0  0  0  0  0  0
    0.3611   16.1945   19.1692 C   0  0  0  0  0  0  0  0  0  0  0  0
    1.3830   16.3128   20.0480 N   0  0  0  0  0  0  0  0  0  0  0  0
    0.0842   17.3803   18.3413 C   0  0  0  0  0  0  0  0  0  0  0  0
   -0.8714   17.5568   17.3525 C   0  0  0  0  0  0  0  0  0  0  0  0
   -0.8277   18.8521   16.7575 C   0  0  0  0  0  0  0  0  0  0  0  0
    0.1612   19.6346   17.3050 C   0  0  0  0  0  0  0  0  0  0  0  0
    1.0247   18.8128   18.5271 S   0  0  0  0  0  0  0  0  0  0  0  0
    4.5576   16.9884   22.4988 C   0  0  0  0  0  0  0  0  0  0  0  0
    5.3446   23.2788   19.0533 O   0  0  0  0  0  0  0  0  0  0  0  0
    5.4304   22.2727   19.7344 C   0  0  0  0  0  0  0  0  0  0  0  0
    6.4974   21.9162   20.5714 N   0  0  0  0  0  0  0  0  0  0  0  0
    6.2073   20.6944   21.1686 C   0  0  0  0  0  0  0  0  0  0  0  0
    6.9498   19.9499   22.0516 C   0  0  0  0  0  0  0  0  0  0  0  0
    6.3873   18.7417   22.4799 C   0  0  0  0  0  0  0  0  0  0  0  0
    5.1082   18.3128   22.0295 C   0  0  0  0  0  0  0  0  0  0  0  0
    4.3820   19.0981   21.1162 C   0  0  0  0  0  0  0  0  0  0  0  0
    4.9583   20.2793   20.7121 C   0  0  0  0  0  0  0  0  0  0  0  0
    4.4809   21.2455   19.8333 N   0  0  0  0  0  0  0  0  0  0  0  0
    7.3262   22.4736   20.6932 H   0  0  0  0  0  0  0  0  0  0  0  0
    3.6088   21.2386   19.3316 H   0  0  0  0  0  0  0  0  0  0  0  0
 17 18  2  0  0  0
 18 19  1  0  0  0
 19 20  1  0  0  0
 20 21  1  0  0  0
 21 22  2  0  0  0
 22 23  1  0  0  0
 23 16  1  0  0  0
 16  1  1  0  0  0
  1  2  1  0  0  0
  2  3  2  0  0  0
  2  5  1  0  0  0
  5  6  1  0  0  0
  6  7  2  0  0  0
  7  8  1  0  0  0
  8  9  2  0  0  0
  9 11  1  0  0  0
 11 12  2  0  0  0
 12 13  1  0  0  0
 13 14  2  0  0  0
 14 15  1  0  0  0
  9 10  1  0  0  0
 23 24  2  0  0  0
 24 25  1  0  0  0
 25 26  1  0  0  0
 26 18  1  0  0  0
 25 20  2  0  0  0
 10  5  2  0  0  0
 15 11  1  0  0  0
 19 27  1  0  0  0
  1  4  1  0  0  0
 26 28  1  0  0  0
M  END
> <minimizedAffinity>
-8.89291

$$$$
OCNT-2310546


 25 27  0  0  0  0  0  0  0  0999 V2000
    1.7521   19.8786   19.2397 S   0  0  0  0  0  0  0  0  0  0  0  0
    2.0438   19.6185   17.8485 O   0  0  0  0  0  0  0  0  0  0  0  0
    1.1336   21.1081   19.6792 O   0  0  0  0  0  0  0  0  0  0  0  0
    5.3450   20.4170   20.8070 C   0  0  0  0  0  0  0  0  0  0  0  0
    4.2644   20.8432   20.0379 C   0  0  0  0  0  0  0  0  0  0  0  0
    3.2859   19.8244   20.0297 C   0  0  0  0  0  0  0  0  0  0  0  0
    3.7711   18.7909   20.7999 C   0  0  0  0  0  0  0  0  0  0  0  0
    5.0177   19.1465   21.2557 N   0  0  0  0  0  0  0  0  0  0  0  0
    5.8272   18.2782   22.0863 C   0  0  0  0  0  0  0  0  0  0  0  0
    6.5477   21.1955   21.0508 C   0  0  0  0  0  0  0  0  0  0  0  0
    7.4318   21.3852   20.2249 O   0  0  0  0  0  0  0  0  0  0  0  0
    5.2882   22.0981   22.8034 C   0  0  0  0  0  0  0  0  0  0  0  0
    6.5688   21.6935   22.3175 O   0  0  0  0  0  0  0  0  0  0  0  0
    0.8415   18.5894   19.8005 N   0  0  0  0  0  0  0  0  0  0  0  0
    0.8610   18.5254   20.8175 H   0  0  0  0  0  0  0  0  0  0  0  0
    0.9634   17.2979   19.0966 C   0  0  0  0  0  0  0  0  0  0  0  0
   -0.3564   17.1023   18.3290 C   0  0  0  0  0  0  0  0  0  0  0  0
   -0.5007   15.6724   17.8313 C   0  0  0  0  0  0  0  0  0  0  0  0
   -0.5671   14.7167   19.0171 C   0  0  0  0  0  0  0  0  0  0  0  0
    0.5566   14.9362   19.9991 C   0  0  0  0  0  0  0  0  0  0  0  0
    0.8709   13.9066   20.9010 C   0  0  0  0  0  0  0  0  0  0  0  0
    1.9058   14.0574   21.8217 C   0  0  0  0  0  0  0  0  0  0  0  0
    2.6401   15.2372   21.8500 C   0  0  0  0  0  0  0  0  0  0  0  0
    2.3284   16.2731   20.9692 C   0  0  0  0  0  0  0  0  0  0  0  0
    1.2677   16.1521   20.0519 C   0  0  0  0  0  0  0  0  0  0  0  0
 12 13  1  0  0  0
 13 10  1  0  0  0
 10 11  2  0  0  0
 10  4  1  0  0  0
  4  5  2  0  0  0
  5  6  1  0  0  0
  6  1  1  0  0  0
  1  2  2  0  0  0
  1  3  2  0  0  0
  1 14  1  0  0  0
 14 16  1  0  0  0
 16 17  1  0  0  0
 17 18  1  0  0  0
 18 19  1  0  0  0
 19 20  1  0  0  0
 20 21  2  0  0  0
 21 22  1  0  0  0
 22 23  2  0  0  0
 23 24  1  0  0  0
 24 25  2  0  0  0
  6  7  2  0  0  0
  7  8  1  0  0  0
  8  9  1  0  0  0
  8  4  1  0  0  0
 25 16  1  0  0  0
 25 20  1  0  0  0
 14 15  1  0  0  0
M  END
> <minimizedAffinity>
-10.25061

$$$$
OCNT-2310551


 26 28  0  0  0  0  0  0  0  0999 V2000
    3.5761   18.1749   21.2437 N   0  0  0  0  0  0  0  0  0  0  0  0
    3.7901   16.8075   21.2464 C   0  0  0  0  0  0  0  0  0  0  0  0
    4.8062   16.2143   20.9078 O   0  0  0  0  0  0  0  0  0  0  0  0
    2.6293   18.5087   21.3556 H   0  0  0  0  0  0  0  0  0  0  0  0
    4.5232   20.0810   19.9002 C   0  0  0  0  0  0  0  0  0  0  0  0
    5.4798   21.0245   19.7013 N   0  0  0  0  0  0  0  0  0  0  0  0
    6.4970   21.0718   20.5860 C   0  0  0  0  0  0  0  0  0  0  0  0
    6.6310   20.2067   21.6624 C   0  0  0  0  0  0  0  0  0  0  0  0
    7.8168   20.2811   22.5706 C   0  0  0  0  0  0  0  0  0  0  0  0
    5.6444   19.2307   21.8314 C   0  0  0  0  0  0  0  0  0  0  0  0
    4.5436   19.1732   20.9669 C   0  0  0  0  0  0  0  0  0  0  0  0
    2.2880   20.1808   19.2559 C   0  0  0  0  0  0  0  0  0  0  0  0
    3.6251   19.8825   18.8751 O   0  0  0  0  0  0  0  0  0  0  0  0
    2.6322   15.9867   21.6637 C   0  0  0  0  0  0  0  0  0  0  0  0
    1.5645   15.8064   20.7939 C   0  0  0  0  0  0  0  0  0  0  0  0
    0.4784   15.0279   21.2002 C   0  0  0  0  0  0  0  0  0  0  0  0
    0.4572   14.4522   22.4741 C   0  0  0  0  0  0  0  0  0  0  0  0
    1.5010   14.6331   23.3179 N   0  0  0  0  0  0  0  0  0  0  0  0
    2.5435   15.4001   22.9125 C   0  0  0  0  0  0  0  0  0  0  0  0
   -0.6080   13.6552   22.8835 N   0  0  0  0  0  0  0  0  0  0  0  0
   -0.3312   12.2210   22.9956 C   0  0  0  0  0  0  0  0  0  0  0  0
   -1.6449   11.4707   23.2057 C   0  0  0  0  0  0  0  0  0  0  0  0
   -2.3375   11.8911   24.5117 C   0  0  0  0  0  0  0  0  0  0  0  0
   -3.8555   11.7679   24.3753 C   0  0  0  0  0  0  0  0  0  0  0  0
   -1.9222   13.3032   24.9524 C   0  0  0  0  0  0  0  0  0  0  0  0
   -1.6218   14.2306   23.7739 C   0  0  0  0  0  0  0  0  0  0  0  0
 12 13  1  0  0  0
 13  5  1  0  0  0
  5  6  1  0  0  0
  6  7  2  0  0  0
  7  8  1  0  0  0
  8  9  1  0  0  0
  8 10  2  0  0  0
 10 11  1  0  0  0
 11  1  1  0  0  0
  1  2  1  0  0  0
  2  3  2  0  0  0
  2 14  1  0  0  0
 14 15  2  0  0  0
 15 16  1  0  0  0
 16 17  2  0  0  0
 17 20  1  0  0  0
 20 21  1  0  0  0
 21 22  1  0  0  0
 22 23  1  0  0  0
 23 24  1  0  0  0
 23 25  1  0  0  0
 25 26  1  0  0  0
 17 18  1  0  0  0
 18 19  2  0  0  0
 11  5  2  0  0  0
 19 14  1  0  0  0
 26 20  1  0  0  0
  1  4  1  0  0  0
M  END
> <minimizedAffinity>
-2.83221

$$$$
OCNT-2310566


 23 24  0  0  0  0  0  0  0  0999 V2000
    0.3047   15.5875   19.4688 C   0  0  0  0  0  0  0  0  0  0  0  0
    1.3770   16.3226   19.6835 N   0  0  0  0  0  0  0  0  0  0  0  0
    1.9632   15.6800   20.7468 C   0  0  0  0  0  0  0  0  0  0  0  0
    1.2781   14.6203   21.2074 N   0  0  0  0  0  0  0  0  0  0  0  0
    0.1783   14.5506   20.3516 O   0  0  0  0  0  0  0  0  0  0  0  0
   -0.6975   15.7101   18.3599 C   0  0  0  0  0  0  0  0  0  0  0  0
   -0.9396   14.3863   17.6330 C   0  0  0  0  0  0  0  0  0  0  0  0
   -0.1836   18.9630   16.4560 C   0  0  0  0  0  0  0  0  0  0  0  0
   -0.9040   17.9337   17.2896 C   0  0  0  0  0  0  0  0  0  0  0  0
   -2.0112   18.1449   17.7696 O   0  0  0  0  0  0  0  0  0  0  0  0
   -0.2143   16.7562   17.4537 N   0  0  0  0  0  0  0  0  0  0  0  0
    0.7938   16.8044   17.3310 H   0  0  0  0  0  0  0  0  0  0  0  0
    3.2963   16.0784   21.3069 C   0  0  0  0  0  0  0  0  0  0  0  0
    3.8762   14.9705   22.1867 C   0  0  0  0  0  0  0  0  0  0  0  0
    3.2179   17.2661   22.1371 O   0  0  0  0  0  0  0  0  0  0  0  0
    4.1495   18.2128   21.7914 C   0  0  0  0  0  0  0  0  0  0  0  0
    5.3332   18.3170   22.5291 C   0  0  0  0  0  0  0  0  0  0  0  0
    6.2734   19.2949   22.2028 C   0  0  0  0  0  0  0  0  0  0  0  0
    6.0145   20.1817   21.1572 C   0  0  0  0  0  0  0  0  0  0  0  0
    7.2853   21.5074   20.7225 Br  0  0  0  0  0  0  0  0  0  0  0  0
    4.8211   20.1069   20.4391 C   0  0  0  0  0  0  0  0  0  0  0  0
    3.8831   19.1250   20.7617 C   0  0  0  0  0  0  0  0  0  0  0  0
    2.4075   19.0747   19.8658 Cl  0  0  0  0  0  0  0  0  0  0  0  0
  8  9  1  0  0  0
  9 10  2  0  0  0
  9 11  1  0  0  0
 11  6  1  0  0  0
  6  7  1  0  0  0
  6  1  1  0  0  0
  1  2  2  0  0  0
  2  3  1  0  0  0
  3 13  1  0  0  0
 13 14  1  0  0  0
 13 15  1  0  0  0
 15 16  1  0  0  0
 16 17  1  0  0  0
 17 18  2  0  0  0
 18 19  1  0  0  0
 19 20  1  0  0  0
 19 21  2  0  0  0
 21 22  1  0  0  0
 22 23  1  0  0  0
  3  4  2  0  0  0
  4  5  1  0  0  0
  5  1  1  0  0  0
 22 16  2  0  0  0
 11 12  1  0  0  0
M  END
> <minimizedAffinity>
-8.60692

$$$$
OCNT-2310581


 24 26  0  0  0  0  0  0  0  0999 V2000
    0.5866   19.7809   18.9247 C   0  0  0  0  0  0  0  0  0  0  0  0
    1.9598   20.1476   19.4237 C   0  0  0  0  0  0  0  0  0  0  0  0
    2.3304   21.4845   19.5993 C   0  0  0  0  0  0  0  0  0  0  0  0
    3.6011   21.8177   20.0877 C   0  0  0  0  0  0  0  0  0  0  0  0
    4.5298   20.8161   20.4195 C   0  0  0  0  0  0  0  0  0  0  0  0
    4.1454   19.4808   20.2498 C   0  0  0  0  0  0  0  0  0  0  0  0
    4.9602   18.4594   20.5444 F   0  0  0  0  0  0  0  0  0  0  0  0
    2.8796   19.1496   19.7624 C   0  0  0  0  0  0  0  0  0  0  0  0
    5.8200   21.1677   20.9161 N   0  0  0  0  0  0  0  0  0  0  0  0
    6.9715   21.4288   20.2033 C   0  0  0  0  0  0  0  0  0  0  0  0
    7.9475   21.7197   21.1263 C   0  0  0  0  0  0  0  0  0  0  0  0
    7.4501   21.6510   22.3922 N   0  0  0  0  0  0  0  0  0  0  0  0
    6.1860   21.3222   22.2404 C   0  0  0  0  0  0  0  0  0  0  0  0
    0.3369   17.4062   18.2847 C   0  0  0  0  0  0  0  0  0  0  0  0
    0.5446   17.6341   17.0957 O   0  0  0  0  0  0  0  0  0  0  0  0
    0.2810   18.4078   19.2295 N   0  0  0  0  0  0  0  0  0  0  0  0
    0.2072   18.1136   20.1961 H   0  0  0  0  0  0  0  0  0  0  0  0
    0.7661   13.9949   21.6763 C   0  0  0  0  0  0  0  0  0  0  0  0
    0.3232   14.5037   20.3636 C   0  0  0  0  0  0  0  0  0  0  0  0
   -0.3603   13.9404   19.3105 C   0  0  0  0  0  0  0  0  0  0  0  0
   -0.4842   14.9498   18.3147 C   0  0  0  0  0  0  0  0  0  0  0  0
   -1.1435   14.8238   16.9911 C   0  0  0  0  0  0  0  0  0  0  0  0
    0.1388   16.0769   18.8326 C   0  0  0  0  0  0  0  0  0  0  0  0
    0.6305   15.7986   20.0836 O   0  0  0  0  0  0  0  0  0  0  0  0
 18 19  1  0  0  0
 19 20  2  0  0  0
 20 21  1  0  0  0
 21 22  1  0  0  0
 21 23  2  0  0  0
 23 14  1  0  0  0
 14 15  2  0  0  0
 14 16  1  0  0  0
 16  1  1  0  0  0
  1  2  1  0  0  0
  2  3  1  0  0  0
  3  4  2  0  0  0
  4  5  1  0  0  0
  5  9  1  0  0  0
  9 10  1  0  0  0
 10 11  2  0  0  0
 11 12  1  0  0  0
 12 13  2  0  0  0
  5  6  2  0  0  0
  6  7  1  0  0  0
  6  8  1  0  0  0
 23 24  1  0  0  0
 24 19  1  0  0  0
  8  2  2  0  0  0
 13  9  1  0  0  0
 16 17  1  0  0  0
M  END
> <minimizedAffinity>
-7.33470

$$$$
OCNT-2310589


 27 30  0  0  0  0  0  0  0  0999 V2000
    1.0694   18.8408   18.8157 C   0  0  0  0  0  0  0  0  0  0  0  0
    0.8538   19.4513   17.7729 O   0  0  0  0  0  0  0  0  0  0  0  0
    1.6947   19.3950   19.9176 N   0  0  0  0  0  0  0  0  0  0  0  0
    2.0347   18.7884   20.6528 H   0  0  0  0  0  0  0  0  0  0  0  0
   -0.2064   16.7703   18.0663 C   0  0  0  0  0  0  0  0  0  0  0  0
   -0.5541   15.4243   18.2976 C   0  0  0  0  0  0  0  0  0  0  0  0
   -0.0448   14.7237   19.3935 C   0  0  0  0  0  0  0  0  0  0  0  0
    0.8299   15.3634   20.2722 C   0  0  0  0  0  0  0  0  0  0  0  0
    1.1793   16.7004   20.0790 C   0  0  0  0  0  0  0  0  0  0  0  0
    0.6730   17.4079   18.9707 C   0  0  0  0  0  0  0  0  0  0  0  0
    1.4834   14.4669   21.6669 S   0  0  0  0  0  0  0  0  0  0  0  0
    0.0709   14.2364   22.7272 C   0  0  0  0  0  0  0  0  0  0  0  0
    2.4296   15.3460   22.3310 O   0  0  0  0  0  0  0  0  0  0  0  0
    1.8858   13.1558   21.1935 O   0  0  0  0  0  0  0  0  0  0  0  0
   -2.0390   18.2747   17.1690 C   0  0  0  0  0  0  0  0  0  0  0  0
   -0.7921   17.4566   16.8461 C   0  0  0  0  0  0  0  0  0  0  0  0
    2.1830   20.7539   19.8862 C   0  0  0  0  0  0  0  0  0  0  0  0
    3.4420   20.7986   19.0783 C   0  0  0  0  0  0  0  0  0  0  0  0
    4.7645   21.2799   19.6436 C   0  0  0  0  0  0  0  0  0  0  0  0
    5.0798   21.4010   21.1313 C   0  0  0  0  0  0  0  0  0  0  0  0
    5.0823   19.9687   21.6216 C   0  0  0  0  0  0  0  0  0  0  0  0
    5.3260   19.5289   22.9160 C   0  0  0  0  0  0  0  0  0  0  0  0
    5.2318   18.1603   23.1778 C   0  0  0  0  0  0  0  0  0  0  0  0
    4.8995   17.2587   22.1533 C   0  0  0  0  0  0  0  0  0  0  0  0
    4.6688   17.7125   20.8482 C   0  0  0  0  0  0  0  0  0  0  0  0
    4.7633   19.0730   20.5806 C   0  0  0  0  0  0  0  0  0  0  0  0
    4.5665   19.8035   19.2850 C   0  0  0  0  0  0  0  0  0  0  0  0
 15 16  1  0  0  0
 16  5  1  0  0  0
  5  6  1  0  0  0
  6  7  2  0  0  0
  7  8  1  0  0  0
  8 11  1  0  0  0
 11 12  1  0  0  0
 11 13  2  0  0  0
 11 14  2  0  0  0
  8  9  2  0  0  0
  9 10  1  0  0  0
 10  1  1  0  0  0
  1  2  2  0  0  0
  1  3  1  0  0  0
  3 17  1  0  0  0
 17 18  1  0  0  0
 18 19  1  0  0  0
 19 20  1  0  0  0
 20 21  1  0  0  0
 21 22  2  0  0  0
 22 23  1  0  0  0
 23 24  2  0  0  0
 24 25  1  0  0  0
 25 26  2  0  0  0
 26 27  1  0  0  0
 10  5  2  0  0  0
 27 18  1  0  0  0
 27 19  1  0  0  0
 26 21  1  0  0  0
  3  4  1  0  0  0
M  END
> <minimizedAffinity>
-9.92730

$$$$
OCNT-2310598


 23 26  0  0  0  0  0  0  0  0999 V2000
    1.2057   15.6310   19.9412 N   0  0  0  0  0  0  0  0  0  0  0  0
    0.9961   17.0737   19.7220 C   0  0  0  0  0  0  0  0  0  0  0  0
    2.3224   17.8658   19.7395 C   0  0  0  0  0  0  0  0  0  0  0  0
    3.0822   17.6184   20.9844 N   0  0  0  0  0  0  0  0  0  0  0  0
    3.2536   16.1832   21.2847 C   0  0  0  0  0  0  0  0  0  0  0  0
    1.9032   15.4302   21.2233 C   0  0  0  0  0  0  0  0  0  0  0  0
    4.1221   18.4832   21.2224 C   0  0  0  0  0  0  0  0  0  0  0  0
    4.3910   19.5135   20.4418 N   0  0  0  0  0  0  0  0  0  0  0  0
    5.4703   20.2268   20.9235 C   0  0  0  0  0  0  0  0  0  0  0  0
    6.0595   21.3751   20.3684 C   0  0  0  0  0  0  0  0  0  0  0  0
    7.1520   21.9351   21.0303 C   0  0  0  0  0  0  0  0  0  0  0  0
    7.6049   21.3381   22.1987 C   0  0  0  0  0  0  0  0  0  0  0  0
    7.0769   20.2358   22.7759 N   0  0  0  0  0  0  0  0  0  0  0  0
    6.0227   19.7340   22.0969 C   0  0  0  0  0  0  0  0  0  0  0  0
    5.1716   18.3577   22.6047 S   0  0  0  0  0  0  0  0  0  0  0  0
   -0.0278   14.8391   19.8186 C   0  0  0  0  0  0  0  0  0  0  0  0
   -0.6791   14.7478   18.4263 C   0  0  0  0  0  0  0  0  0  0  0  0
   -1.0391   18.6555   16.6328 C   0  0  0  0  0  0  0  0  0  0  0  0
   -1.8620   18.2994   17.6996 C   0  0  0  0  0  0  0  0  0  0  0  0
   -1.7499   17.0338   18.2772 C   0  0  0  0  0  0  0  0  0  0  0  0
   -0.8150   16.1112   17.7887 C   0  0  0  0  0  0  0  0  0  0  0  0
    0.0115   16.4811   16.7192 C   0  0  0  0  0  0  0  0  0  0  0  0
   -0.1024   17.7473   16.1431 C   0  0  0  0  0  0  0  0  0  0  0  0
 18 19  2  0  0  0
 19 20  1  0  0  0
 20 21  2  0  0  0
 21 17  1  0  0  0
 17 16  1  0  0  0
 16  1  1  0  0  0
  1  2  1  0  0  0
  2  3  1  0  0  0
  3  4  1  0  0  0
  4  7  1  0  0  0
  7  8  2  0  0  0
  8  9  1  0  0  0
  9 10  1  0  0  0
 10 11  2  0  0  0
 11 12  1  0  0  0
 12 13  2  0  0  0
 13 14  1  0  0  0
 14 15  1  0  0  0
  4  5  1  0  0  0
  5  6  1  0  0  0
 21 22  1  0  0  0
 22 23  2  0  0  0
 23 18  1  0  0  0
  6  1  1  0  0  0
 15  7  1  0  0  0
 14  9  2  0  0  0
M  END
> <minimizedAffinity>
-7.77455

$$$$
OCNT-2310605


 25 27  0  0  0  0  0  0  0  0999 V2000
    0.7339   15.0854   20.4554 C   0  0  0  0  0  0  0  0  0  0  0  0
    0.3530   14.3905   21.3932 O   0  0  0  0  0  0  0  0  0  0  0  0
    1.8401   15.8962   20.5452 N   0  0  0  0  0  0  0  0  0  0  0  0
    2.1645   16.3451   19.6954 H   0  0  0  0  0  0  0  0  0  0  0  0
   -0.3190   16.2267   18.3945 C   0  0  0  0  0  0  0  0  0  0  0  0
   -1.0403   16.0839   17.1979 C   0  0  0  0  0  0  0  0  0  0  0  0
   -1.4401   14.8217   16.7543 C   0  0  0  0  0  0  0  0  0  0  0  0
   -1.1248   13.6990   17.5037 C   0  0  0  0  0  0  0  0  0  0  0  0
   -1.5096   12.4909   17.0740 F   0  0  0  0  0  0  0  0  0  0  0  0
   -0.4219   13.8125   18.6937 C   0  0  0  0  0  0  0  0  0  0  0  0
   -0.0178   15.0760   19.1586 C   0  0  0  0  0  0  0  0  0  0  0  0
   -0.2701   18.6043   18.1335 C   0  0  0  0  0  0  0  0  0  0  0  0
    0.1011   17.4438   18.8721 O   0  0  0  0  0  0  0  0  0  0  0  0
    2.7115   15.8865   21.6947 C   0  0  0  0  0  0  0  0  0  0  0  0
    3.6900   17.0228   21.6391 C   0  0  0  0  0  0  0  0  0  0  0  0
    4.8606   17.0261   22.3995 C   0  0  0  0  0  0  0  0  0  0  0  0
    5.7350   18.1123   22.3313 C   0  0  0  0  0  0  0  0  0  0  0  0
    5.4089   19.1813   21.5004 C   0  0  0  0  0  0  0  0  0  0  0  0
    4.2711   19.2027   20.7595 N   0  0  0  0  0  0  0  0  0  0  0  0
    3.4423   18.1365   20.8470 C   0  0  0  0  0  0  0  0  0  0  0  0
    6.2690   20.3104   21.4004 N   0  0  0  0  0  0  0  0  0  0  0  0
    6.4822   21.0608   20.2625 C   0  0  0  0  0  0  0  0  0  0  0  0
    7.3733   22.0438   20.6165 C   0  0  0  0  0  0  0  0  0  0  0  0
    7.7213   21.9301   21.9343 N   0  0  0  0  0  0  0  0  0  0  0  0
    7.0497   20.8877   22.3758 C   0  0  0  0  0  0  0  0  0  0  0  0
 12 13  1  0  0  0
 13  5  1  0  0  0
  5  6  1  0  0  0
  6  7  2  0  0  0
  7  8  1  0  0  0
  8  9  1  0  0  0
  8 10  2  0  0  0
 10 11  1  0  0  0
 11  1  1  0  0  0
  1  2  2  0  0  0
  1  3  1  0  0  0
  3 14  1  0  0  0
 14 15  1  0  0  0
 15 16  2  0  0  0
 16 17  1  0  0  0
 17 18  2  0  0  0
 18 21  1  0  0  0
 21 22  1  0  0  0
 22 23  2  0  0  0
 23 24  1  0  0  0
 24 25  2  0  0  0
 18 19  1  0  0  0
 19 20  2  0  0  0
 11  5  2  0  0  0
 20 15  1  0  0  0
 25 21  1  0  0  0
  3  4  1  0  0  0
M  END
> <minimizedAffinity>
-6.53253

$$$$
OCNT-2310606


 25 27  0  0  0  0  0  0  0  0999 V2000
    3.2381   14.8860   22.1396 C   0  0  0  0  0  0  0  0  0  0  0  0
    4.6744   16.7754   21.5048 C   0  0  0  0  0  0  0  0  0  0  0  0
    5.7017   16.1431   21.7207 O   0  0  0  0  0  0  0  0  0  0  0  0
    3.4066   16.2390   21.6287 N   0  0  0  0  0  0  0  0  0  0  0  0
    2.6368   16.8837   21.7510 H   0  0  0  0  0  0  0  0  0  0  0  0
    4.8542   22.3634   19.9274 C   0  0  0  0  0  0  0  0  0  0  0  0
    4.8299   20.9255   20.3642 C   0  0  0  0  0  0  0  0  0  0  0  0
    3.9977   20.0159   19.6940 C   0  0  0  0  0  0  0  0  0  0  0  0
    3.9555   18.6735   20.0784 C   0  0  0  0  0  0  0  0  0  0  0  0
    4.7508   18.2156   21.1339 C   0  0  0  0  0  0  0  0  0  0  0  0
    5.5703   19.1163   21.8216 C   0  0  0  0  0  0  0  0  0  0  0  0
    5.6108   20.4594   21.4335 C   0  0  0  0  0  0  0  0  0  0  0  0
    6.6513   21.5199   22.3178 Cl  0  0  0  0  0  0  0  0  0  0  0  0
    1.7684   14.4807   22.2243 C   0  0  0  0  0  0  0  0  0  0  0  0
    1.0217   14.8117   20.9772 C   0  0  0  0  0  0  0  0  0  0  0  0
    1.0800   16.0429   20.4625 N   0  0  0  0  0  0  0  0  0  0  0  0
    0.3177   15.9996   19.3374 N   0  0  0  0  0  0  0  0  0  0  0  0
   -0.2315   14.7462   19.1648 C   0  0  0  0  0  0  0  0  0  0  0  0
    0.2059   13.9626   20.2050 C   0  0  0  0  0  0  0  0  0  0  0  0
    0.1709   17.1463   18.5066 C   0  0  0  0  0  0  0  0  0  0  0  0
    0.7806   18.3536   18.8841 C   0  0  0  0  0  0  0  0  0  0  0  0
    0.6571   19.4882   18.0790 C   0  0  0  0  0  0  0  0  0  0  0  0
   -0.0744   19.4277   16.8952 C   0  0  0  0  0  0  0  0  0  0  0  0
   -0.6854   18.2340   16.5149 C   0  0  0  0  0  0  0  0  0  0  0  0
   -0.5658   17.0930   17.3151 C   0  0  0  0  0  0  0  0  0  0  0  0
  6  7  1  0  0  0
  7  8  1  0  0  0
  8  9  2  0  0  0
  9 10  1  0  0  0
 10  2  1  0  0  0
  2  3  2  0  0  0
  2  4  1  0  0  0
  4  1  1  0  0  0
  1 14  1  0  0  0
 14 15  1  0  0  0
 15 16  2  0  0  0
 16 17  1  0  0  0
 17 20  1  0  0  0
 20 21  2  0  0  0
 21 22  1  0  0  0
 22 23  2  0  0  0
 23 24  1  0  0  0
 24 25  2  0  0  0
 17 18  1  0  0  0
 18 19  2  0  0  0
 10 11  2  0  0  0
 11 12  1  0  0  0
 12 13  1  0  0  0
 12  7  2  0  0  0
 19 15  1  0  0  0
 25 20  1  0  0  0
  4  5  1  0  0  0
M  END
> <minimizedAffinity>
-10.43711

$$$$
OCNT-2310610


 27 29  0  0  0  0  0  0  0  0999 V2000
    1.3621   14.1641   22.6184 C   0  0  0  0  0  0  0  0  0  0  0  0
    2.5583   14.9462   22.2238 C   0  0  0  0  0  0  0  0  0  0  0  0
    2.6636   16.2483   22.0815 N   0  0  0  0  0  0  0  0  0  0  0  0
    3.9816   16.4371   21.7183 C   0  0  0  0  0  0  0  0  0  0  0  0
    4.6863   15.2963   21.6428 N   0  0  0  0  0  0  0  0  0  0  0  0
    3.7683   14.3733   21.9618 N   0  0  0  0  0  0  0  0  0  0  0  0
    4.0307   13.3933   21.9867 H   0  0  0  0  0  0  0  0  0  0  0  0
    4.5353   17.7619   21.4524 C   0  0  0  0  0  0  0  0  0  0  0  0
    5.5717   18.2696   22.2511 C   0  0  0  0  0  0  0  0  0  0  0  0
    6.1080   19.5373   22.0034 C   0  0  0  0  0  0  0  0  0  0  0  0
    5.6101   20.3059   20.9537 C   0  0  0  0  0  0  0  0  0  0  0  0
    6.2695   21.8652   20.6481 Cl  0  0  0  0  0  0  0  0  0  0  0  0
    4.5816   19.8192   20.1502 C   0  0  0  0  0  0  0  0  0  0  0  0
    4.0463   18.5512   20.3995 C   0  0  0  0  0  0  0  0  0  0  0  0
    0.3761   14.0528   21.4548 C   0  0  0  0  0  0  0  0  0  0  0  0
   -0.1192   15.2082   19.3400 C   0  0  0  0  0  0  0  0  0  0  0  0
   -0.5158   14.1807   18.7998 O   0  0  0  0  0  0  0  0  0  0  0  0
    0.3475   15.2490   20.6336 N   0  0  0  0  0  0  0  0  0  0  0  0
    0.8227   16.0764   20.9716 H   0  0  0  0  0  0  0  0  0  0  0  0
    1.0037   19.9860   19.2299 C   0  0  0  0  0  0  0  0  0  0  0  0
    0.4927   18.8230   18.5211 N   0  0  0  0  0  0  0  0  0  0  0  0
    0.4238   17.6111   19.1956 C   0  0  0  0  0  0  0  0  0  0  0  0
   -0.0375   16.5007   18.5965 C   0  0  0  0  0  0  0  0  0  0  0  0
   -0.5207   16.5823   17.2348 C   0  0  0  0  0  0  0  0  0  0  0  0
   -0.4710   17.7361   16.5566 C   0  0  0  0  0  0  0  0  0  0  0  0
    0.0739   18.9648   17.1972 C   0  0  0  0  0  0  0  0  0  0  0  0
    0.1204   20.0058   16.5492 O   0  0  0  0  0  0  0  0  0  0  0  0
 20 21  1  0  0  0
 21 22  1  0  0  0
 22 23  2  0  0  0
 23 16  1  0  0  0
 16 17  2  0  0  0
 16 18  1  0  0  0
 18 15  1  0  0  0
 15  1  1  0  0  0
  1  2  1  0  0  0
  2  3  2  0  0  0
  3  4  1  0  0  0
  4  8  1  0  0  0
  8  9  1  0  0  0
  9 10  2  0  0  0
 10 11  1  0  0  0
 11 12  1  0  0  0
 11 13  2  0  0  0
 13 14  1  0  0  0
  4  5  2  0  0  0
  5  6  1  0  0  0
 23 24  1  0  0  0
 24 25  2  0  0  0
 25 26  1  0  0  0
 26 27  2  0  0  0
 26 21  1  0  0  0
  6  2  1  0  0  0
 14  8  2  0  0  0
 18 19  1  0  0  0
  6  7  1  0  0  0
M  END
> <minimizedAffinity>
-9.60459

$$$$
OCNT-2310650


 24 27  0  0  0  0  0  0  0  0999 V2000
    3.9985   18.9159   20.6077 C   0  0  0  0  0  0  0  0  0  0  0  0
    4.0241   17.5608   20.8762 C   0  0  0  0  0  0  0  0  0  0  0  0
    2.7896   17.0480   20.4084 C   0  0  0  0  0  0  0  0  0  0  0  0
    2.0401   18.0131   19.8651 N   0  0  0  0  0  0  0  0  0  0  0  0
    2.7901   19.1190   19.9906 N   0  0  0  0  0  0  0  0  0  0  0  0
    2.4225   19.9866   19.6178 H   0  0  0  0  0  0  0  0  0  0  0  0
    5.8600   22.1658   20.4742 C   0  0  0  0  0  0  0  0  0  0  0  0
    4.8979   21.2053   20.2011 C   0  0  0  0  0  0  0  0  0  0  0  0
    4.9810   19.9703   20.8489 C   0  0  0  0  0  0  0  0  0  0  0  0
    6.0287   19.7644   21.7493 C   0  0  0  0  0  0  0  0  0  0  0  0
    6.9440   20.7850   21.9524 C   0  0  0  0  0  0  0  0  0  0  0  0
    6.8836   21.9811   21.3322 N   0  0  0  0  0  0  0  0  0  0  0  0
    2.2805   15.6330   20.4529 C   0  0  0  0  0  0  0  0  0  0  0  0
    2.5955   14.9771   21.8066 C   0  0  0  0  0  0  0  0  0  0  0  0
    1.7376   13.7393   22.0450 C   0  0  0  0  0  0  0  0  0  0  0  0
    0.3110   14.0677   21.9804 N   0  0  0  0  0  0  0  0  0  0  0  0
   -0.0846   15.3128   21.3183 C   0  0  0  0  0  0  0  0  0  0  0  0
    0.7888   15.5381   20.0877 C   0  0  0  0  0  0  0  0  0  0  0  0
   -0.5244   13.6378   23.0103 C   0  0  0  0  0  0  0  0  0  0  0  0
   -0.9097   14.4793   24.0642 C   0  0  0  0  0  0  0  0  0  0  0  0
   -1.7160   14.1107   25.0958 N   0  0  0  0  0  0  0  0  0  0  0  0
   -2.1271   12.8297   25.0581 C   0  0  0  0  0  0  0  0  0  0  0  0
   -1.7502   11.9702   24.0449 C   0  0  0  0  0  0  0  0  0  0  0  0
   -0.9518   12.3521   23.0194 N   0  0  0  0  0  0  0  0  0  0  0  0
  7  8  1  0  0  0
  8  9  2  0  0  0
  9  1  1  0  0  0
  1  2  2  0  0  0
  2  3  1  0  0  0
  3 13  1  0  0  0
 13 14  1  0  0  0
 14 15  1  0  0  0
 15 16  1  0  0  0
 16 19  1  0  0  0
 19 20  2  0  0  0
 20 21  1  0  0  0
 21 22  2  0  0  0
 22 23  1  0  0  0
 23 24  2  0  0  0
 16 17  1  0  0  0
 17 18  1  0  0  0
  3  4  2  0  0  0
  4  5  1  0  0  0
  9 10  1  0  0  0
 10 11  2  0  0  0
 11 12  1  0  0  0
 12  7  2  0  0  0
  5  1  1  0  0  0
 18 13  1  0  0  0
 24 19  1  0  0  0
  5  6  1  0  0  0
M  END
> <minimizedAffinity>
-5.42936

$$$$
OCNT-2310664


 28 31  0  0  0  0  0  0  0  0999 V2000
    3.6048   15.9100   21.5330 C   0  0  0  0  0  0  0  0  0  0  0  0
    2.7508   16.4947   20.7265 N   0  0  0  0  0  0  0  0  0  0  0  0
    1.6023   15.7808   20.4929 N   0  0  0  0  0  0  0  0  0  0  0  0
    1.2611   14.5582   21.0301 C   0  0  0  0  0  0  0  0  0  0  0  0
    0.0852   14.1839   20.5836 N   0  0  0  0  0  0  0  0  0  0  0  0
   -0.3714   15.1725   19.7430 N   0  0  0  0  0  0  0  0  0  0  0  0
    0.5402   16.1306   19.6773 C   0  0  0  0  0  0  0  0  0  0  0  0
    2.1658   13.9656   21.9282 C   0  0  0  0  0  0  0  0  0  0  0  0
    3.3123   14.5970   22.2045 C   0  0  0  0  0  0  0  0  0  0  0  0
    0.4469   17.3564   18.8885 C   0  0  0  0  0  0  0  0  0  0  0  0
    0.8346   18.5992   19.4143 C   0  0  0  0  0  0  0  0  0  0  0  0
    0.7557   19.7604   18.6378 C   0  0  0  0  0  0  0  0  0  0  0  0
    0.2919   19.6951   17.3251 C   0  0  0  0  0  0  0  0  0  0  0  0
   -0.0928   18.4683   16.7891 C   0  0  0  0  0  0  0  0  0  0  0  0
   -0.0118   17.3138   17.5674 C   0  0  0  0  0  0  0  0  0  0  0  0
   -0.4120   16.1568   17.0185 F   0  0  0  0  0  0  0  0  0  0  0  0
    4.7587   16.6191   21.7777 N   0  0  0  0  0  0  0  0  0  0  0  0
    5.4578   16.0578   22.2553 H   0  0  0  0  0  0  0  0  0  0  0  0
    4.4718   18.6569   19.4387 C   0  0  0  0  0  0  0  0  0  0  0  0
    4.7058   18.8648   20.8910 C   0  0  0  0  0  0  0  0  0  0  0  0
    4.8226   17.9627   21.9305 C   0  0  0  0  0  0  0  0  0  0  0  0
    5.0720   18.7523   23.0702 C   0  0  0  0  0  0  0  0  0  0  0  0
    5.0765   20.0572   22.7941 N   0  0  0  0  0  0  0  0  0  0  0  0
    4.8665   20.1060   21.4622 N   0  0  0  0  0  0  0  0  0  0  0  0
    4.8118   21.4129   20.8252 C   0  0  0  0  0  0  0  0  0  0  0  0
    6.1995   21.9772   20.5500 C   0  0  0  0  0  0  0  0  0  0  0  0
    7.0757   21.7543   21.6552 O   0  0  0  0  0  0  0  0  0  0  0  0
    7.3899   20.8347   21.6051 H   0  0  0  0  0  0  0  0  0  0  0  0
 19 20  1  0  0  0
 20 21  2  0  0  0
 21 17  1  0  0  0
 17  1  1  0  0  0
  1  2  2  0  0  0
  2  3  1  0  0  0
  3  4  1  0  0  0
  4  5  2  0  0  0
  5  6  1  0  0  0
  6  7  2  0  0  0
  7 10  1  0  0  0
 10 11  2  0  0  0
 11 12  1  0  0  0
 12 13  2  0  0  0
 13 14  1  0  0  0
 14 15  2  0  0  0
 15 16  1  0  0  0
  4  8  1  0  0  0
  8  9  2  0  0  0
 21 22  1  0  0  0
 22 23  2  0  0  0
 23 24  1  0  0  0
 24 25  1  0  0  0
 25 26  1  0  0  0
 26 27  1  0  0  0
 24 20  1  0  0  0
  9  1  1  0  0  0
  7  3  1  0  0  0
 15 10  1  0  0  0
 17 18  1  0  0  0
 27 28  1  0  0  0
M  END
> <minimizedAffinity>
-10.17969

$$$$
OCNT-2310670


 24 26  0  0  0  0  0  0  0  0999 V2000
    1.7163   17.0323   20.9521 N   0  0  0  0  0  0  0  0  0  0  0  0
    1.7779   18.0512   20.9360 H   0  0  0  0  0  0  0  0  0  0  0  0
    0.8596   14.2347   20.9432 C   0  0  0  0  0  0  0  0  0  0  0  0
    0.4837   15.2112   19.8587 C   0  0  0  0  0  0  0  0  0  0  0  0
   -0.3432   14.7664   18.8181 C   0  0  0  0  0  0  0  0  0  0  0  0
   -0.7291   15.6337   17.8017 C   0  0  0  0  0  0  0  0  0  0  0  0
   -0.2853   16.9555   17.8059 C   0  0  0  0  0  0  0  0  0  0  0  0
   -0.8316   17.9746   16.5171 Cl  0  0  0  0  0  0  0  0  0  0  0  0
    0.5584   17.4363   18.8249 C   0  0  0  0  0  0  0  0  0  0  0  0
    0.9440   16.5515   19.8643 C   0  0  0  0  0  0  0  0  0  0  0  0
    1.0615   18.8599   18.7919 C   0  0  0  0  0  0  0  0  0  0  0  0
    0.5918   19.5847   19.9258 O   0  0  0  0  0  0  0  0  0  0  0  0
   -0.3798   19.5304   19.9017 H   0  0  0  0  0  0  0  0  0  0  0  0
    3.0910   16.5084   20.9243 C   0  0  0  0  0  0  0  0  0  0  0  0
    4.0272   17.6908   21.1056 C   0  0  0  0  0  0  0  0  0  0  0  0
    5.1246   17.5859   21.8733 C   0  0  0  0  0  0  0  0  0  0  0  0
    6.0044   18.7598   22.0488 C   0  0  0  0  0  0  0  0  0  0  0  0
    7.0170   18.6715   22.7369 O   0  0  0  0  0  0  0  0  0  0  0  0
    5.5827   19.8863   21.3885 N   0  0  0  0  0  0  0  0  0  0  0  0
    6.2340   21.1006   21.4067 C   0  0  0  0  0  0  0  0  0  0  0  0
    5.6319   22.0493   20.6801 C   0  0  0  0  0  0  0  0  0  0  0  0
    4.1835   21.4488   19.9178 S   0  0  0  0  0  0  0  0  0  0  0  0
    4.4357   19.8628   20.6300 C   0  0  0  0  0  0  0  0  0  0  0  0
    3.6553   18.8528   20.4511 N   0  0  0  0  0  0  0  0  0  0  0  0
  3  4  1  0  0  0
  4  5  1  0  0  0
  5  6  2  0  0  0
  6  7  1  0  0  0
  7  8  1  0  0  0
  7  9  2  0  0  0
  9 11  1  0  0  0
 11 12  1  0  0  0
  9 10  1  0  0  0
 10  1  1  0  0  0
  1 14  1  0  0  0
 14 15  1  0  0  0
 15 16  2  0  0  0
 16 17  1  0  0  0
 17 18  2  0  0  0
 17 19  1  0  0  0
 19 20  1  0  0  0
 20 21  2  0  0  0
 21 22  1  0  0  0
 22 23  1  0  0  0
 23 24  2  0  0  0
 10  4  2  0  0  0
 24 15  1  0  0  0
 23 19  1  0  0  0
 12 13  1  0  0  0
  1  2  1  0  0  0
M  END
> <minimizedAffinity>
-9.98861

$$$$
OCNT-2310674


 24 26  0  0  0  0  0  0  0  0999 V2000
    3.4261   15.0470   22.0190 C   0  0  0  0  0  0  0  0  0  0  0  0
    4.7660   17.0020   21.3135 C   0  0  0  0  0  0  0  0  0  0  0  0
    5.6237   16.2752   20.8200 O   0  0  0  0  0  0  0  0  0  0  0  0
    3.6208   16.4786   21.8732 N   0  0  0  0  0  0  0  0  0  0  0  0
    2.9988   17.0881   22.3838 H   0  0  0  0  0  0  0  0  0  0  0  0
    5.8057   21.8607   22.3986 C   0  0  0  0  0  0  0  0  0  0  0  0
    5.3119   20.5913   21.8149 C   0  0  0  0  0  0  0  0  0  0  0  0
    4.5294   20.6070   20.7344 N   0  0  0  0  0  0  0  0  0  0  0  0
    4.2785   19.3060   20.4857 N   0  0  0  0  0  0  0  0  0  0  0  0
    3.4394   18.9651   19.3582 C   0  0  0  0  0  0  0  0  0  0  0  0
    4.8788   18.4424   21.3747 C   0  0  0  0  0  0  0  0  0  0  0  0
    5.5571   19.2723   22.2539 C   0  0  0  0  0  0  0  0  0  0  0  0
    1.9495   14.6572   22.1559 C   0  0  0  0  0  0  0  0  0  0  0  0
    1.1476   15.0116   20.9483 C   0  0  0  0  0  0  0  0  0  0  0  0
    1.0230   16.2386   20.3304 C   0  0  0  0  0  0  0  0  0  0  0  0
    0.1667   16.0816   19.2581 N   0  0  0  0  0  0  0  0  0  0  0  0
   -0.2753   14.7989   19.1769 N   0  0  0  0  0  0  0  0  0  0  0  0
    0.3330   14.1623   20.1758 C   0  0  0  0  0  0  0  0  0  0  0  0
   -0.2630   17.0659   18.3239 C   0  0  0  0  0  0  0  0  0  0  0  0
   -1.6371   17.2663   18.1178 C   0  0  0  0  0  0  0  0  0  0  0  0
   -2.0810   18.2275   17.2072 C   0  0  0  0  0  0  0  0  0  0  0  0
   -1.1599   18.9937   16.4968 C   0  0  0  0  0  0  0  0  0  0  0  0
    0.2064   18.8005   16.6947 C   0  0  0  0  0  0  0  0  0  0  0  0
    0.6586   17.8400   17.6049 C   0  0  0  0  0  0  0  0  0  0  0  0
  6  7  1  0  0  0
  7  8  2  0  0  0
  8  9  1  0  0  0
  9 10  1  0  0  0
  9 11  1  0  0  0
 11  2  1  0  0  0
  2  3  2  0  0  0
  2  4  1  0  0  0
  4  1  1  0  0  0
  1 13  1  0  0  0
 13 14  1  0  0  0
 14 15  2  0  0  0
 15 16  1  0  0  0
 16 19  1  0  0  0
 19 20  2  0  0  0
 20 21  1  0  0  0
 21 22  2  0  0  0
 22 23  1  0  0  0
 23 24  2  0  0  0
 16 17  1  0  0  0
 17 18  2  0  0  0
 11 12  2  0  0  0
 12  7  1  0  0  0
 18 14  1  0  0  0
 24 19  1  0  0  0
  4  5  1  0  0  0
M  END
> <minimizedAffinity>
-9.13939

$$$$
OCNT-2310682


 23 25  0  0  0  0  0  0  0  0999 V2000
    4.4617   19.0301   21.4635 N   0  0  0  0  0  0  0  0  0  0  0  0
    3.8324   17.8067   21.4441 C   0  0  0  0  0  0  0  0  0  0  0  0
    4.2413   16.8519   22.0969 O   0  0  0  0  0  0  0  0  0  0  0  0
    4.2646   19.7104   20.7419 H   0  0  0  0  0  0  0  0  0  0  0  0
    2.6701   17.7375   20.5844 C   0  0  0  0  0  0  0  0  0  0  0  0
    2.1274   18.7526   19.8135 C   0  0  0  0  0  0  0  0  0  0  0  0
    0.9964   18.2446   19.1210 C   0  0  0  0  0  0  0  0  0  0  0  0
    0.0651   18.8021   18.2243 C   0  0  0  0  0  0  0  0  0  0  0  0
   -0.9500   17.9862   17.7146 C   0  0  0  0  0  0  0  0  0  0  0  0
   -2.2110   18.7213   16.5092 Br  0  0  0  0  0  0  0  0  0  0  0  0
   -1.0495   16.6440   18.0757 C   0  0  0  0  0  0  0  0  0  0  0  0
   -0.1316   16.0733   18.9634 C   0  0  0  0  0  0  0  0  0  0  0  0
    0.8773   16.9011   19.4694 C   0  0  0  0  0  0  0  0  0  0  0  0
    1.9052   16.6182   20.3395 N   0  0  0  0  0  0  0  0  0  0  0  0
    2.0891   15.7010   20.7198 H   0  0  0  0  0  0  0  0  0  0  0  0
    5.6999   19.2581   22.2007 C   0  0  0  0  0  0  0  0  0  0  0  0
    6.7217   18.1720   21.8778 C   0  0  0  0  0  0  0  0  0  0  0  0
    6.1856   20.6660   21.7730 C   0  0  0  0  0  0  0  0  0  0  0  0
    6.5059   21.6854   22.9205 C   0  0  0  0  0  0  0  0  0  0  0  0
    5.0435   22.1530   22.8631 C   0  0  0  0  0  0  0  0  0  0  0  0
    4.9924   21.6250   21.4214 C   0  0  0  0  0  0  0  0  0  0  0  0
    7.9044   21.7027   20.3277 C   0  0  0  0  0  0  0  0  0  0  0  0
    7.1419   20.5536   20.6729 O   0  0  0  0  0  0  0  0  0  0  0  0
 22 23  1  0  0  0
 23 18  1  0  0  0
 18 16  1  0  0  0
 16 17  1  0  0  0
 16  1  1  0  0  0
  1  2  1  0  0  0
  2  3  2  0  0  0
  2  5  1  0  0  0
  5  6  2  0  0  0
  6  7  1  0  0  0
  7  8  2  0  0  0
  8  9  1  0  0  0
  9 10  1  0  0  0
  9 11  2  0  0  0
 11 12  1  0  0  0
 12 13  2  0  0  0
 13 14  1  0  0  0
 18 19  1  0  0  0
 19 20  1  0  0  0
 20 21  1  0  0  0
 21 18  1  0  0  0
 14  5  1  0  0  0
 13  7  1  0  0  0
  1  4  1  0  0  0
 14 15  1  0  0  0
M  END
> <minimizedAffinity>
-7.76350

$$$$
OCNT-2310684


 27 29  0  0  0  0  0  0  0  0999 V2000
    0.3466   17.8352   19.0079 C   0  0  0  0  0  0  0  0  0  0  0  0
   -0.4840   18.6337   19.4297 O   0  0  0  0  0  0  0  0  0  0  0  0
    1.6620   18.1838   18.7834 N   0  0  0  0  0  0  0  0  0  0  0  0
    2.2895   17.4375   18.4914 H   0  0  0  0  0  0  0  0  0  0  0  0
    0.1684   15.3418   19.5854 C   0  0  0  0  0  0  0  0  0  0  0  0
   -0.2480   14.0566   19.2150 C   0  0  0  0  0  0  0  0  0  0  0  0
   -0.8307   13.8345   17.9652 C   0  0  0  0  0  0  0  0  0  0  0  0
   -1.0131   14.8930   17.0805 C   0  0  0  0  0  0  0  0  0  0  0  0
   -0.6241   16.1807   17.4498 C   0  0  0  0  0  0  0  0  0  0  0  0
   -0.0456   16.4222   18.7071 C   0  0  0  0  0  0  0  0  0  0  0  0
    0.7316   15.5890   20.8136 O   0  0  0  0  0  0  0  0  0  0  0  0
    1.5632   14.5521   21.3335 C   0  0  0  0  0  0  0  0  0  0  0  0
    3.1416   16.3378   21.9275 N   0  0  0  0  0  0  0  0  0  0  0  0
    2.9526   14.9883   21.8072 C   0  0  0  0  0  0  0  0  0  0  0  0
    3.8313   14.1926   22.1264 O   0  0  0  0  0  0  0  0  0  0  0  0
    2.5466   16.9937   21.4342 H   0  0  0  0  0  0  0  0  0  0  0  0
    4.0816   16.6463   22.1486 H   0  0  0  0  0  0  0  0  0  0  0  0
    2.1814   19.5420   19.0382 C   0  0  0  0  0  0  0  0  0  0  0  0
    3.6631   19.7379   18.6394 C   0  0  0  0  0  0  0  0  0  0  0  0
    4.0528   19.3402   20.0901 C   0  0  0  0  0  0  0  0  0  0  0  0
    2.6199   19.7759   20.5035 C   0  0  0  0  0  0  0  0  0  0  0  0
    5.3009   20.0409   20.7734 C   0  0  0  0  0  0  0  0  0  0  0  0
    5.9672   19.4427   21.8636 C   0  0  0  0  0  0  0  0  0  0  0  0
    7.0709   20.0392   22.4803 C   0  0  0  0  0  0  0  0  0  0  0  0
    7.5451   21.2636   22.0214 C   0  0  0  0  0  0  0  0  0  0  0  0
    6.9155   21.8862   20.9489 C   0  0  0  0  0  0  0  0  0  0  0  0
    5.8125   21.2810   20.3384 C   0  0  0  0  0  0  0  0  0  0  0  0
 13 14  1  0  0  0
 14 15  2  0  0  0
 14 12  1  0  0  0
 12 11  1  0  0  0
 11  5  1  0  0  0
  5  6  2  0  0  0
  6  7  1  0  0  0
  7  8  2  0  0  0
  8  9  1  0  0  0
  9 10  2  0  0  0
 10  1  1  0  0  0
  1  2  2  0  0  0
  1  3  1  0  0  0
  3 18  1  0  0  0
 18 19  1  0  0  0
 19 20  1  0  0  0
 20 22  1  0  0  0
 22 23  2  0  0  0
 23 24  1  0  0  0
 24 25  2  0  0  0
 25 26  1  0  0  0
 26 27  2  0  0  0
 20 21  1  0  0  0
 10  5  1  0  0  0
 21 18  1  0  0  0
 27 22  1  0  0  0
 13 16  1  0  0  0
 13 17  1  0  0  0
  3  4  1  0  0  0
M  END
> <minimizedAffinity>
-8.28287

$$$$
OCNT-2310685


 26 28  0  0  0  0  0  0  0  0999 V2000
    2.9866   16.3374   22.0747 N   0  0  0  0  0  0  0  0  0  0  0  0
    4.1840   16.8806   21.6729 C   0  0  0  0  0  0  0  0  0  0  0  0
    4.6693   16.8962   20.5499 O   0  0  0  0  0  0  0  0  0  0  0  0
    4.8484   17.4262   22.7618 N   0  0  0  0  0  0  0  0  0  0  0  0
    2.8545   16.2080   23.0625 H   0  0  0  0  0  0  0  0  0  0  0  0
    4.2458   17.8702   23.4423 H   0  0  0  0  0  0  0  0  0  0  0  0
    0.5874   15.4910   19.7267 N   0  0  0  0  0  0  0  0  0  0  0  0
    0.6253   14.2974   20.3838 C   0  0  0  0  0  0  0  0  0  0  0  0
    1.5537   14.4583   21.3852 C   0  0  0  0  0  0  0  0  0  0  0  0
    2.0368   15.7839   21.2453 C   0  0  0  0  0  0  0  0  0  0  0  0
    1.4306   16.4023   20.2327 N   0  0  0  0  0  0  0  0  0  0  0  0
   -0.2273   15.8297   18.5765 C   0  0  0  0  0  0  0  0  0  0  0  0
   -0.8242   17.2389   18.6363 C   0  0  0  0  0  0  0  0  0  0  0  0
    0.3692   19.1891   17.5029 C   0  0  0  0  0  0  0  0  0  0  0  0
   -0.6662   18.0742   17.3502 C   0  0  0  0  0  0  0  0  0  0  0  0
   -2.0179   18.6774   16.9579 C   0  0  0  0  0  0  0  0  0  0  0  0
    6.0946   18.1435   22.5436 C   0  0  0  0  0  0  0  0  0  0  0  0
    5.8440   19.6536   22.4615 C   0  0  0  0  0  0  0  0  0  0  0  0
    7.0051   20.4099   21.8352 C   0  0  0  0  0  0  0  0  0  0  0  0
    6.6389   20.4287   20.3704 C   0  0  0  0  0  0  0  0  0  0  0  0
    5.1276   20.5633   20.4183 C   0  0  0  0  0  0  0  0  0  0  0  0
    4.6237   22.0062   20.4696 C   0  0  0  0  0  0  0  0  0  0  0  0
    3.1459   21.8988   20.0963 C   0  0  0  0  0  0  0  0  0  0  0  0
    3.0046   20.6139   19.2799 C   0  0  0  0  0  0  0  0  0  0  0  0
    4.4019   20.0015   19.2027 C   0  0  0  0  0  0  0  0  0  0  0  0
    4.6958   19.8795   21.6097 O   0  0  0  0  0  0  0  0  0  0  0  0
 14 15  1  0  0  0
 15 16  1  0  0  0
 15 13  1  0  0  0
 13 12  1  0  0  0
 12  7  1  0  0  0
  7  8  1  0  0  0
  8  9  2  0  0  0
  9 10  1  0  0  0
 10  1  1  0  0  0
  1  2  1  0  0  0
  2  3  2  0  0  0
  2  4  1  0  0  0
  4 17  1  0  0  0
 17 18  1  0  0  0
 18 19  1  0  0  0
 19 20  1  0  0  0
 20 21  1  0  0  0
 21 22  1  0  0  0
 22 23  1  0  0  0
 23 24  1  0  0  0
 24 25  1  0  0  0
 21 26  1  0  0  0
 10 11  2  0  0  0
 11  7  1  0  0  0
 26 18  1  0  0  0
 25 21  1  0  0  0
  1  5  1  0  0  0
  4  6  1  0  0  0
M  END
> <minimizedAffinity>
-9.28770

$$$$
OCNT-2310686


 27 30  0  0  0  0  0  0  0  0999 V2000
    2.9967   17.2142   22.1731 C   0  0  0  0  0  0  0  0  0  0  0  0
    3.2352   18.1910   18.9483 C   0  0  0  0  0  0  0  0  0  0  0  0
    3.4010   19.2303   20.0737 C   0  0  0  0  0  0  0  0  0  0  0  0
    3.6043   20.5878   19.3876 C   0  0  0  0  0  0  0  0  0  0  0  0
    4.0739   21.6233   20.3793 C   0  0  0  0  0  0  0  0  0  0  0  0
    5.3614   21.1416   20.9813 C   0  0  0  0  0  0  0  0  0  0  0  0
    6.3489   22.0890   21.3062 C   0  0  0  0  0  0  0  0  0  0  0  0
    7.5297   21.6953   21.9241 C   0  0  0  0  0  0  0  0  0  0  0  0
    7.7228   20.3565   22.2345 C   0  0  0  0  0  0  0  0  0  0  0  0
    6.7373   19.4114   21.9255 C   0  0  0  0  0  0  0  0  0  0  0  0
    5.5430   19.7762   21.2862 C   0  0  0  0  0  0  0  0  0  0  0  0
    4.4857   18.8336   21.0043 N   0  0  0  0  0  0  0  0  0  0  0  0
    4.4114   17.6013   21.6953 C   0  0  0  0  0  0  0  0  0  0  0  0
    5.3814   16.8922   21.9655 O   0  0  0  0  0  0  0  0  0  0  0  0
    2.7741   15.8166   22.0147 O   0  0  0  0  0  0  0  0  0  0  0  0
    1.8410   15.4267   21.0953 C   0  0  0  0  0  0  0  0  0  0  0  0
    1.3066   14.1441   20.9595 C   0  0  0  0  0  0  0  0  0  0  0  0
    0.3498   13.8807   19.9732 C   0  0  0  0  0  0  0  0  0  0  0  0
   -0.0663   14.8945   19.1054 C   0  0  0  0  0  0  0  0  0  0  0  0
   -1.1600   14.6645   18.1013 C   0  0  0  0  0  0  0  0  0  0  0  0
   -0.9989   15.5741   16.8945 C   0  0  0  0  0  0  0  0  0  0  0  0
   -0.7427   17.0090   17.2950 C   0  0  0  0  0  0  0  0  0  0  0  0
   -1.1346   17.9582   16.6203 O   0  0  0  0  0  0  0  0  0  0  0  0
    0.0469   17.2020   18.3969 N   0  0  0  0  0  0  0  0  0  0  0  0
    0.4721   16.1760   19.2463 C   0  0  0  0  0  0  0  0  0  0  0  0
    1.4102   16.4453   20.2413 C   0  0  0  0  0  0  0  0  0  0  0  0
    0.3257   18.1579   18.5795 H   0  0  0  0  0  0  0  0  0  0  0  0
  2  3  1  0  0  0
  3  4  1  0  0  0
  4  5  1  0  0  0
  5  6  1  0  0  0
  6  7  2  0  0  0
  7  8  1  0  0  0
  8  9  2  0  0  0
  9 10  1  0  0  0
 10 11  2  0  0  0
 11 12  1  0  0  0
 12 13  1  0  0  0
 13 14  2  0  0  0
 13  1  1  0  0  0
  1 15  1  0  0  0
 15 16  1  0  0  0
 16 17  1  0  0  0
 17 18  2  0  0  0
 18 19  1  0  0  0
 19 20  1  0  0  0
 20 21  1  0  0  0
 21 22  1  0  0  0
 22 23  2  0  0  0
 22 24  1  0  0  0
 24 25  1  0  0  0
 25 26  1  0  0  0
 12  3  1  0  0  0
 26 16  2  0  0  0
 11  6  1  0  0  0
 25 19  2  0  0  0
 24 27  1  0  0  0
M  END
> <minimizedAffinity>
-8.62959

$$$$
OCNT-2310699


 22 25  0  0  0  0  0  0  0  0999 V2000
    2.0381   14.3255   21.7822 C   0  0  0  0  0  0  0  0  0  0  0  0
    2.0357   15.6373   21.0627 C   0  0  0  0  0  0  0  0  0  0  0  0
    2.9906   16.5244   21.3852 N   0  0  0  0  0  0  0  0  0  0  0  0
    2.9823   17.7221   20.7756 C   0  0  0  0  0  0  0  0  0  0  0  0
    2.0174   18.0113   19.8285 C   0  0  0  0  0  0  0  0  0  0  0  0
    1.0622   17.0482   19.5455 C   0  0  0  0  0  0  0  0  0  0  0  0
    1.0556   15.8582   20.1755 N   0  0  0  0  0  0  0  0  0  0  0  0
    3.9670   18.6184   21.1081 N   0  0  0  0  0  0  0  0  0  0  0  0
    4.1444   19.8303   20.2979 C   0  0  0  0  0  0  0  0  0  0  0  0
    5.4341   20.3893   20.8195 C   0  0  0  0  0  0  0  0  0  0  0  0
    6.0584   21.5784   20.4791 C   0  0  0  0  0  0  0  0  0  0  0  0
    7.2746   21.8867   21.0927 C   0  0  0  0  0  0  0  0  0  0  0  0
    7.8473   21.0094   22.0274 C   0  0  0  0  0  0  0  0  0  0  0  0
    7.2121   19.8111   22.3620 C   0  0  0  0  0  0  0  0  0  0  0  0
    6.0042   19.5155   21.7504 C   0  0  0  0  0  0  0  0  0  0  0  0
    5.1393   18.3063   21.9273 C   0  0  0  0  0  0  0  0  0  0  0  0
   -0.0107   17.2488   18.5557 C   0  0  0  0  0  0  0  0  0  0  0  0
   -0.5715   16.2026   17.8069 C   0  0  0  0  0  0  0  0  0  0  0  0
   -1.5830   16.4540   16.8787 C   0  0  0  0  0  0  0  0  0  0  0  0
   -2.0189   17.7566   16.7173 C   0  0  0  0  0  0  0  0  0  0  0  0
   -1.5220   18.7976   17.4124 N   0  0  0  0  0  0  0  0  0  0  0  0
   -0.5436   18.5175   18.3125 C   0  0  0  0  0  0  0  0  0  0  0  0
  1  2  1  0  0  0
  2  3  1  0  0  0
  3  4  2  0  0  0
  4  8  1  0  0  0
  8  9  1  0  0  0
  9 10  1  0  0  0
 10 11  2  0  0  0
 11 12  1  0  0  0
 12 13  2  0  0  0
 13 14  1  0  0  0
 14 15  2  0  0  0
 15 16  1  0  0  0
  4  5  1  0  0  0
  5  6  2  0  0  0
  6 17  1  0  0  0
 17 18  1  0  0  0
 18 19  2  0  0  0
 19 20  1  0  0  0
 20 21  2  0  0  0
 21 22  1  0  0  0
  6  7  1  0  0  0
  7  2  2  0  0  0
 16  8  1  0  0  0
 22 17  2  0  0  0
 15 10  1  0  0  0
M  END
> <minimizedAffinity>
-9.58891

$$$$
OCNT-2310706


 23 25  0  0  0  0  0  0  0  0999 V2000
    3.4535   20.2507   19.4707 N   0  0  0  0  0  0  0  0  0  0  0  0
    2.4960   21.3118   19.7762 C   0  0  0  0  0  0  0  0  0  0  0  0
    1.1625   21.0472   19.0822 C   0  0  0  0  0  0  0  0  0  0  0  0
    0.5658   19.7027   19.5111 C   0  0  0  0  0  0  0  0  0  0  0  0
    1.6220   18.5895   19.6965 C   0  0  0  0  0  0  0  0  0  0  0  0
    2.9332   18.9774   18.9681 C   0  0  0  0  0  0  0  0  0  0  0  0
    5.7496   19.3996   22.0579 C   0  0  0  0  0  0  0  0  0  0  0  0
    6.8252   20.2169   21.8305 C   0  0  0  0  0  0  0  0  0  0  0  0
    6.7060   21.0547   20.7503 C   0  0  0  0  0  0  0  0  0  0  0  0
    7.8127   22.0005   20.3971 C   0  0  0  0  0  0  0  0  0  0  0  0
    5.6060   21.0683   19.9695 N   0  0  0  0  0  0  0  0  0  0  0  0
    4.5956   20.2314   20.2589 C   0  0  0  0  0  0  0  0  0  0  0  0
    4.6422   19.3855   21.2986 N   0  0  0  0  0  0  0  0  0  0  0  0
    4.6057   17.9805   23.5281 C   0  0  0  0  0  0  0  0  0  0  0  0
    5.8537   18.5481   23.1426 O   0  0  0  0  0  0  0  0  0  0  0  0
    1.0990   17.3177   19.1709 N   0  0  0  0  0  0  0  0  0  0  0  0
    1.4107   17.1125   18.2238 H   0  0  0  0  0  0  0  0  0  0  0  0
    1.0690   16.1558   19.9466 C   0  0  0  0  0  0  0  0  0  0  0  0
    2.0420   16.0057   20.9478 C   0  0  0  0  0  0  0  0  0  0  0  0
    2.1212   14.8465   21.7258 C   0  0  0  0  0  0  0  0  0  0  0  0
    1.2381   13.7975   21.4985 C   0  0  0  0  0  0  0  0  0  0  0  0
    0.2895   13.9080   20.4872 C   0  0  0  0  0  0  0  0  0  0  0  0
    0.2173   15.0717   19.7115 C   0  0  0  0  0  0  0  0  0  0  0  0
 14 15  1  0  0  0
 15  7  1  0  0  0
  7  8  2  0  0  0
  8  9  1  0  0  0
  9 10  1  0  0  0
  9 11  2  0  0  0
 11 12  1  0  0  0
 12  1  1  0  0  0
  1  2  1  0  0  0
  2  3  1  0  0  0
  3  4  1  0  0  0
  4  5  1  0  0  0
  5 16  1  0  0  0
 16 18  1  0  0  0
 18 19  2  0  0  0
 19 20  1  0  0  0
 20 21  2  0  0  0
 21 22  1  0  0  0
 22 23  2  0  0  0
  5  6  1  0  0  0
 12 13  2  0  0  0
 13  7  1  0  0  0
  6  1  1  0  0  0
 23 18  1  0  0  0
 16 17  1  0  0  0
M  END
> <minimizedAffinity>
-7.99447

$$$$
OCNT-2310716


 23 26  0  0  0  0  0  0  0  0999 V2000
    1.5492   19.1337   19.0053 C   0  0  0  0  0  0  0  0  0  0  0  0
    1.1784   20.2852   19.2119 O   0  0  0  0  0  0  0  0  0  0  0  0
    2.7790   18.6174   19.3298 N   0  0  0  0  0  0  0  0  0  0  0  0
    2.9838   17.6463   19.1158 H   0  0  0  0  0  0  0  0  0  0  0  0
    0.9350   13.9776   20.9084 C   0  0  0  0  0  0  0  0  0  0  0  0
    0.4319   14.8626   19.7960 C   0  0  0  0  0  0  0  0  0  0  0  0
    0.8761   16.0876   19.7404 N   0  0  0  0  0  0  0  0  0  0  0  0
    0.3980   16.8685   18.7189 C   0  0  0  0  0  0  0  0  0  0  0  0
    0.6583   18.1798   18.3651 C   0  0  0  0  0  0  0  0  0  0  0  0
   -0.1426   18.3945   17.2245 C   0  0  0  0  0  0  0  0  0  0  0  0
   -0.8572   17.3246   16.8707 N   0  0  0  0  0  0  0  0  0  0  0  0
   -0.5250   16.3854   17.7867 N   0  0  0  0  0  0  0  0  0  0  0  0
   -0.9896   15.0784   17.8694 C   0  0  0  0  0  0  0  0  0  0  0  0
   -0.5571   14.2646   18.8418 C   0  0  0  0  0  0  0  0  0  0  0  0
    3.8049   19.2953   19.9358 C   0  0  0  0  0  0  0  0  0  0  0  0
    4.5121   18.6808   20.8900 N   0  0  0  0  0  0  0  0  0  0  0  0
    5.4229   19.5943   21.2588 N   0  0  0  0  0  0  0  0  0  0  0  0
    6.3500   19.3207   22.3402 C   0  0  0  0  0  0  0  0  0  0  0  0
    7.4847   20.3452   22.3957 C   0  0  0  0  0  0  0  0  0  0  0  0
    6.9501   21.7672   22.2021 C   0  0  0  0  0  0  0  0  0  0  0  0
    6.2540   21.9096   20.8441 C   0  0  0  0  0  0  0  0  0  0  0  0
    5.3217   20.7795   20.5876 C   0  0  0  0  0  0  0  0  0  0  0  0
    4.2720   20.6116   19.7127 C   0  0  0  0  0  0  0  0  0  0  0  0
  5  6  1  0  0  0
  6  7  2  0  0  0
  7  8  1  0  0  0
  8  9  2  0  0  0
  9  1  1  0  0  0
  1  2  2  0  0  0
  1  3  1  0  0  0
  3 15  1  0  0  0
 15 16  2  0  0  0
 16 17  1  0  0  0
 17 18  1  0  0  0
 18 19  1  0  0  0
 19 20  1  0  0  0
 20 21  1  0  0  0
 21 22  1  0  0  0
 22 23  2  0  0  0
  9 10  1  0  0  0
 10 11  2  0  0  0
 11 12  1  0  0  0
 12 13  1  0  0  0
 13 14  2  0  0  0
 14  6  1  0  0  0
 12  8  1  0  0  0
 23 15  1  0  0  0
 22 17  1  0  0  0
  3  4  1  0  0  0
M  END
> <minimizedAffinity>
-10.39907

$$$$
OCNT-2310728


 21 22  0  0  0  0  0  0  0  0999 V2000
    4.6649   18.2668   21.6797 S   0  0  0  0  0  0  0  0  0  0  0  0
    4.3633   18.5966   23.0522 O   0  0  0  0  0  0  0  0  0  0  0  0
    5.7766   17.4012   21.3487 O   0  0  0  0  0  0  0  0  0  0  0  0
    0.9860   16.3239   19.9090 C   0  0  0  0  0  0  0  0  0  0  0  0
    1.3458   17.6070   19.4827 C   0  0  0  0  0  0  0  0  0  0  0  0
    2.4777   18.2307   20.0079 C   0  0  0  0  0  0  0  0  0  0  0  0
    3.2194   17.5597   20.9698 C   0  0  0  0  0  0  0  0  0  0  0  0
    2.8339   16.2864   21.3327 C   0  0  0  0  0  0  0  0  0  0  0  0
    1.7262   15.6789   20.8412 N   0  0  0  0  0  0  0  0  0  0  0  0
   -0.5372   16.2230   18.0657 C   0  0  0  0  0  0  0  0  0  0  0  0
   -0.1754   15.7159   19.3906 N   0  0  0  0  0  0  0  0  0  0  0  0
   -0.1360   14.2541   19.4731 C   0  0  0  0  0  0  0  0  0  0  0  0
    4.8627   19.6987   20.8260 N   0  0  0  0  0  0  0  0  0  0  0  0
    3.8515   20.1035   19.8263 C   0  0  0  0  0  0  0  0  0  0  0  0
    3.8506   21.6269   19.8613 C   0  0  0  0  0  0  0  0  0  0  0  0
    5.2381   21.9736   20.3699 C   0  0  0  0  0  0  0  0  0  0  0  0
    5.4617   20.9222   21.4635 C   0  0  0  0  0  0  0  0  0  0  0  0
    6.9411   20.8407   21.8641 C   0  0  0  0  0  0  0  0  0  0  0  0
    7.2217   21.6449   22.9103 F   0  0  0  0  0  0  0  0  0  0  0  0
    7.3289   19.5836   22.1602 F   0  0  0  0  0  0  0  0  0  0  0  0
    7.7196   21.2690   20.8366 F   0  0  0  0  0  0  0  0  0  0  0  0
 10 11  1  0  0  0
 11 12  1  0  0  0
 11  4  1  0  0  0
  4  5  2  0  0  0
  5  6  1  0  0  0
  6  7  2  0  0  0
  7  1  1  0  0  0
  1  2  2  0  0  0
  1  3  2  0  0  0
  1 13  1  0  0  0
 13 14  1  0  0  0
 14 15  1  0  0  0
 15 16  1  0  0  0
 16 17  1  0  0  0
 17 18  1  0  0  0
 18 19  1  0  0  0
 18 20  1  0  0  0
 18 21  1  0  0  0
  7  8  1  0  0  0
  8  9  2  0  0  0
  9  4  1  0  0  0
 17 13  1  0  0  0
M  END
> <minimizedAffinity>
-9.88824

$$$$
OCNT-2310736


 31 34  0  0  0  0  0  0  0  0999 V2000
    3.5318   16.3607   22.3873 N   0  0  0  0  0  0  0  0  0  0  0  0
    2.6733   15.8062   21.4627 C   0  0  0  0  0  0  0  0  0  0  0  0
    2.6298   16.0526   20.2651 O   0  0  0  0  0  0  0  0  0  0  0  0
    1.8412   14.8829   22.0635 N   0  0  0  0  0  0  0  0  0  0  0  0
    3.5673   15.8919   23.2799 H   0  0  0  0  0  0  0  0  0  0  0  0
    1.6365   15.0392   23.0381 H   0  0  0  0  0  0  0  0  0  0  0  0
    7.5532   22.5649   20.4922 O   0  0  0  0  0  0  0  0  0  0  0  0
    6.7803   21.6262   20.6699 C   0  0  0  0  0  0  0  0  0  0  0  0
    5.3996   21.5479   20.0189 C   0  0  0  0  0  0  0  0  0  0  0  0
    4.4438   20.5894   20.4456 O   0  0  0  0  0  0  0  0  0  0  0  0
    4.9493   19.5435   21.1652 C   0  0  0  0  0  0  0  0  0  0  0  0
    4.0672   18.4924   21.4258 C   0  0  0  0  0  0  0  0  0  0  0  0
    4.4776   17.3846   22.1787 C   0  0  0  0  0  0  0  0  0  0  0  0
    5.7867   17.3460   22.6649 C   0  0  0  0  0  0  0  0  0  0  0  0
    6.6708   18.4017   22.4143 C   0  0  0  0  0  0  0  0  0  0  0  0
    6.2497   19.4970   21.6643 C   0  0  0  0  0  0  0  0  0  0  0  0
    7.1308   20.5510   21.4347 N   0  0  0  0  0  0  0  0  0  0  0  0
    8.0573   20.5577   21.8397 H   0  0  0  0  0  0  0  0  0  0  0  0
    0.8104   14.2125   21.3008 C   0  0  0  0  0  0  0  0  0  0  0  0
    0.2193   15.1305   20.2615 C   0  0  0  0  0  0  0  0  0  0  0  0
   -0.2131   14.6270   19.0297 C   0  0  0  0  0  0  0  0  0  0  0  0
   -0.7405   15.4777   18.0496 C   0  0  0  0  0  0  0  0  0  0  0  0
   -0.8427   16.8592   18.2791 C   0  0  0  0  0  0  0  0  0  0  0  0
   -0.4001   17.3549   19.5107 C   0  0  0  0  0  0  0  0  0  0  0  0
   -0.4509   18.6581   19.8148 F   0  0  0  0  0  0  0  0  0  0  0  0
    0.1263   16.5066   20.4883 C   0  0  0  0  0  0  0  0  0  0  0  0
   -1.3807   17.7167   17.2749 N   0  0  0  0  0  0  0  0  0  0  0  0
   -0.7326   18.1807   16.1453 C   0  0  0  0  0  0  0  0  0  0  0  0
   -1.6340   18.9720   15.4749 C   0  0  0  0  0  0  0  0  0  0  0  0
   -2.8202   19.0200   16.1410 N   0  0  0  0  0  0  0  0  0  0  0  0
   -2.6451   18.2658   17.2053 C   0  0  0  0  0  0  0  0  0  0  0  0
  7  8  2  0  0  0
  8  9  1  0  0  0
  9 10  1  0  0  0
 10 11  1  0  0  0
 11 12  1  0  0  0
 12 13  2  0  0  0
 13  1  1  0  0  0
  1  2  1  0  0  0
  2  3  2  0  0  0
  2  4  1  0  0  0
  4 19  1  0  0  0
 19 20  1  0  0  0
 20 21  1  0  0  0
 21 22  2  0  0  0
 22 23  1  0  0  0
 23 27  1  0  0  0
 27 28  1  0  0  0
 28 29  2  0  0  0
 29 30  1  0  0  0
 30 31  2  0  0  0
 23 24  2  0  0  0
 24 25  1  0  0  0
 24 26  1  0  0  0
 13 14  1  0  0  0
 14 15  2  0  0  0
 15 16  1  0  0  0
 16 17  1  0  0  0
 17  8  1  0  0  0
 16 11  2  0  0  0
 26 20  2  0  0  0
 31 27  1  0  0  0
  1  5  1  0  0  0
  4  6  1  0  0  0
 17 18  1  0  0  0
M  END
> <minimizedAffinity>
-5.38542

$$$$
OCNT-2310751


 30 33  0  0  0  0  0  0  0  0999 V2000
    4.6533   18.4888   22.0552 C   0  0  0  0  0  0  0  0  0  0  0  0
    4.3642   18.5217   23.2467 O   0  0  0  0  0  0  0  0  0  0  0  0
    4.2036   17.5714   21.1196 N   0  0  0  0  0  0  0  0  0  0  0  0
    4.6307   17.5798   20.2015 H   0  0  0  0  0  0  0  0  0  0  0  0
    4.0310   20.3619   19.8805 N   0  0  0  0  0  0  0  0  0  0  0  0
    5.2948   20.3506   20.4949 C   0  0  0  0  0  0  0  0  0  0  0  0
    6.1701   21.2701   20.0489 N   0  0  0  0  0  0  0  0  0  0  0  0
    7.3918   21.3327   20.6120 C   0  0  0  0  0  0  0  0  0  0  0  0
    7.7759   20.5209   21.6177 N   0  0  0  0  0  0  0  0  0  0  0  0
    6.8786   19.6135   22.0477 C   0  0  0  0  0  0  0  0  0  0  0  0
    5.6027   19.5007   21.5450 C   0  0  0  0  0  0  0  0  0  0  0  0
    3.3277   20.6747   20.5428 H   0  0  0  0  0  0  0  0  0  0  0  0
    3.7772   19.3927   19.6624 H   0  0  0  0  0  0  0  0  0  0  0  0
    8.3658   22.3684   20.1104 C   0  0  0  0  0  0  0  0  0  0  0  0
    9.8217   22.3067   20.5233 C   0  0  0  0  0  0  0  0  0  0  0  0
    9.4364   21.9890   19.1077 C   0  0  0  0  0  0  0  0  0  0  0  0
    3.2554   16.5443   21.3174 C   0  0  0  0  0  0  0  0  0  0  0  0
    2.0306   16.6686   20.6550 C   0  0  0  0  0  0  0  0  0  0  0  0
    1.0285   15.6999   20.8057 C   0  0  0  0  0  0  0  0  0  0  0  0
    1.2204   14.5805   21.6163 C   0  0  0  0  0  0  0  0  0  0  0  0
    2.4522   14.4699   22.2786 C   0  0  0  0  0  0  0  0  0  0  0  0
    3.4579   15.4367   22.1346 C   0  0  0  0  0  0  0  0  0  0  0  0
    0.2591   13.5873   21.8161 N   0  0  0  0  0  0  0  0  0  0  0  0
    0.0914   12.9480   21.0509 H   0  0  0  0  0  0  0  0  0  0  0  0
   -0.5820   13.2484   22.8710 C   0  0  0  0  0  0  0  0  0  0  0  0
   -0.7708   14.2245   23.7770 N   0  0  0  0  0  0  0  0  0  0  0  0
   -1.5817   13.9559   24.8177 C   0  0  0  0  0  0  0  0  0  0  0  0
   -2.2162   12.7533   24.9923 C   0  0  0  0  0  0  0  0  0  0  0  0
   -1.9685   11.8197   24.0195 C   0  0  0  0  0  0  0  0  0  0  0  0
   -1.1641   12.0420   22.9629 N   0  0  0  0  0  0  0  0  0  0  0  0
  5  6  1  0  0  0
  6  7  2  0  0  0
  7  8  1  0  0  0
  8 14  1  0  0  0
 14 15  1  0  0  0
 15 16  1  0  0  0
  8  9  2  0  0  0
  9 10  1  0  0  0
 10 11  2  0  0  0
 11  1  1  0  0  0
  1  2  2  0  0  0
  1  3  1  0  0  0
  3 17  1  0  0  0
 17 18  1  0  0  0
 18 19  2  0  0  0
 19 20  1  0  0  0
 20 23  1  0  0  0
 23 25  1  0  0  0
 25 26  2  0  0  0
 26 27  1  0  0  0
 27 28  2  0  0  0
 28 29  1  0  0  0
 29 30  2  0  0  0
 20 21  2  0  0  0
 21 22  1  0  0  0
 11  6  1  0  0  0
 22 17  2  0  0  0
 16 14  1  0  0  0
 30 25  1  0  0  0
  5 12  1  0  0  0
  5 13  1  0  0  0
  3  4  1  0  0  0
 23 24  1  0  0  0
M  END
> <minimizedAffinity>
-1.83146

$$$$
OCNT-2310758


 22 24  0  0  0  0  0  0  0  0999 V2000
    3.4894   19.0963   20.2312 N   0  0  0  0  0  0  0  0  0  0  0  0
    2.3272   19.5945   19.4659 C   0  0  0  0  0  0  0  0  0  0  0  0
    1.5970   18.4651   18.7054 C   0  0  0  0  0  0  0  0  0  0  0  0
    1.2381   17.3632   19.6249 N   0  0  0  0  0  0  0  0  0  0  0  0
    2.4582   16.8044   20.2512 C   0  0  0  0  0  0  0  0  0  0  0  0
    3.1902   17.8984   21.0519 C   0  0  0  0  0  0  0  0  0  0  0  0
    7.6702   20.0564   22.9147 C   0  0  0  0  0  0  0  0  0  0  0  0
    6.5547   20.4167   22.0606 N   0  0  0  0  0  0  0  0  0  0  0  0
    6.4320   21.7098   21.6160 C   0  0  0  0  0  0  0  0  0  0  0  0
    5.4489   22.0545   20.7814 C   0  0  0  0  0  0  0  0  0  0  0  0
    4.4821   21.2116   20.3128 N   0  0  0  0  0  0  0  0  0  0  0  0
    4.5111   19.9502   20.6809 C   0  0  0  0  0  0  0  0  0  0  0  0
    5.6817   19.4292   21.6056 C   0  0  0  0  0  0  0  0  0  0  0  0
    5.8058   18.2386   21.8665 O   0  0  0  0  0  0  0  0  0  0  0  0
    0.4855   16.3468   18.9971 C   0  0  0  0  0  0  0  0  0  0  0  0
   -0.0659   16.6038   17.7840 N   0  0  0  0  0  0  0  0  0  0  0  0
   -0.7799   15.6208   17.1820 C   0  0  0  0  0  0  0  0  0  0  0  0
   -0.9849   14.3684   17.7328 C   0  0  0  0  0  0  0  0  0  0  0  0
   -1.9019   13.1792   16.9035 Cl  0  0  0  0  0  0  0  0  0  0  0  0
   -0.4353   14.0983   18.9758 C   0  0  0  0  0  0  0  0  0  0  0  0
    0.3041   15.0928   19.6191 C   0  0  0  0  0  0  0  0  0  0  0  0
    0.9284   14.7350   21.1934 Cl  0  0  0  0  0  0  0  0  0  0  0  0
  7  8  1  0  0  0
  8  9  1  0  0  0
  9 10  2  0  0  0
 10 11  1  0  0  0
 11 12  2  0  0  0
 12  1  1  0  0  0
  1  2  1  0  0  0
  2  3  1  0  0  0
  3  4  1  0  0  0
  4 15  1  0  0  0
 15 16  1  0  0  0
 16 17  2  0  0  0
 17 18  1  0  0  0
 18 19  1  0  0  0
 18 20  2  0  0  0
 20 21  1  0  0  0
 21 22  1  0  0  0
  4  5  1  0  0  0
  5  6  1  0  0  0
 12 13  1  0  0  0
 13 14  2  0  0  0
 13  8  1  0  0  0
  6  1  1  0  0  0
 21 15  2  0  0  0
M  END
> <minimizedAffinity>
-6.63618

$$$$
OCNT-2310764


 24 26  0  0  0  0  0  0  0  0999 V2000
    0.7845   16.0427   19.7534 C   0  0  0  0  0  0  0  0  0  0  0  0
    0.3665   14.8864   19.7813 O   0  0  0  0  0  0  0  0  0  0  0  0
    1.9046   16.4217   20.5041 N   0  0  0  0  0  0  0  0  0  0  0  0
    2.4494   15.4307   21.4302 C   0  0  0  0  0  0  0  0  0  0  0  0
    3.3641   16.0808   22.4594 C   0  0  0  0  0  0  0  0  0  0  0  0
    4.5645   16.7793   21.7976 C   0  0  0  0  0  0  0  0  0  0  0  0
    4.2539   17.2144   20.3510 C   0  0  0  0  0  0  0  0  0  0  0  0
    2.7778   17.5461   20.1466 C   0  0  0  0  0  0  0  0  0  0  0  0
   -0.9213   18.2480   17.4050 C   0  0  0  0  0  0  0  0  0  0  0  0
   -0.8883   19.0349   18.4872 N   0  0  0  0  0  0  0  0  0  0  0  0
   -0.2990   18.2717   19.4211 N   0  0  0  0  0  0  0  0  0  0  0  0
    0.1237   17.0543   18.9667 C   0  0  0  0  0  0  0  0  0  0  0  0
   -0.3189   16.9953   17.6598 C   0  0  0  0  0  0  0  0  0  0  0  0
   -0.2192   18.6420   20.3613 H   0  0  0  0  0  0  0  0  0  0  0  0
   -2.9987   19.1264   16.3232 C   0  0  0  0  0  0  0  0  0  0  0  0
   -1.5436   18.7247   16.1370 C   0  0  0  0  0  0  0  0  0  0  0  0
    5.0339   17.9550   22.6727 C   0  0  0  0  0  0  0  0  0  0  0  0
    4.4561   19.1900   22.2515 O   0  0  0  0  0  0  0  0  0  0  0  0
    5.2525   20.1221   21.6482 C   0  0  0  0  0  0  0  0  0  0  0  0
    4.8413   21.1161   20.7600 C   0  0  0  0  0  0  0  0  0  0  0  0
    5.7744   22.0092   20.2224 C   0  0  0  0  0  0  0  0  0  0  0  0
    7.1205   21.9144   20.5705 C   0  0  0  0  0  0  0  0  0  0  0  0
    7.5368   20.9268   21.4587 C   0  0  0  0  0  0  0  0  0  0  0  0
    6.6043   20.0367   21.9944 C   0  0  0  0  0  0  0  0  0  0  0  0
 15 16  1  0  0  0
 16  9  1  0  0  0
  9 10  2  0  0  0
 10 11  1  0  0  0
 11 12  1  0  0  0
 12  1  1  0  0  0
  1  2  2  0  0  0
  1  3  1  0  0  0
  3  4  1  0  0  0
  4  5  1  0  0  0
  5  6  1  0  0  0
  6 17  1  0  0  0
 17 18  1  0  0  0
 18 19  1  0  0  0
 19 20  2  0  0  0
 20 21  1  0  0  0
 21 22  2  0  0  0
 22 23  1  0  0  0
 23 24  2  0  0  0
  6  7  1  0  0  0
  7  8  1  0  0  0
 12 13  2  0  0  0
 13  9  1  0  0  0
  8  3  1  0  0  0
 24 19  1  0  0  0
 11 14  1  0  0  0
M  END
> <minimizedAffinity>
-8.43007

$$$$
OCNT-2310779


 25 27  0  0  0  0  0  0  0  0999 V2000
    1.3355   15.3488   20.6088 N   0  0  0  0  0  0  0  0  0  0  0  0
    2.4834   15.8926   21.1714 C   0  0  0  0  0  0  0  0  0  0  0  0
    3.0201   17.0921   20.9059 C   0  0  0  0  0  0  0  0  0  0  0  0
    2.3247   17.9223   19.8949 C   0  0  0  0  0  0  0  0  0  0  0  0
    2.7431   19.0368   19.5842 O   0  0  0  0  0  0  0  0  0  0  0  0
    1.1066   17.3663   19.2531 C   0  0  0  0  0  0  0  0  0  0  0  0
    0.4524   18.1421   18.2834 C   0  0  0  0  0  0  0  0  0  0  0  0
   -0.6825   17.6429   17.6606 C   0  0  0  0  0  0  0  0  0  0  0  0
   -1.4934   18.5812   16.4702 Cl  0  0  0  0  0  0  0  0  0  0  0  0
   -1.1643   16.3829   17.9954 C   0  0  0  0  0  0  0  0  0  0  0  0
   -0.5077   15.6130   18.9651 C   0  0  0  0  0  0  0  0  0  0  0  0
    0.6422   16.0829   19.6217 C   0  0  0  0  0  0  0  0  0  0  0  0
    4.2648   17.4945   21.6229 C   0  0  0  0  0  0  0  0  0  0  0  0
    5.3078   16.8585   21.5093 O   0  0  0  0  0  0  0  0  0  0  0  0
    4.1435   18.6120   22.4062 N   0  0  0  0  0  0  0  0  0  0  0  0
    3.2504   19.1026   22.4030 H   0  0  0  0  0  0  0  0  0  0  0  0
    5.2789   19.2533   23.0379 C   0  0  0  0  0  0  0  0  0  0  0  0
    5.9631   20.2607   22.1389 C   0  0  0  0  0  0  0  0  0  0  0  0
    7.3427   20.2830   22.0173 C   0  0  0  0  0  0  0  0  0  0  0  0
    7.8681   21.2238   21.1602 C   0  0  0  0  0  0  0  0  0  0  0  0
    7.1188   22.0878   20.4542 N   0  0  0  0  0  0  0  0  0  0  0  0
    5.7945   21.9813   20.6335 C   0  0  0  0  0  0  0  0  0  0  0  0
    5.1728   21.1026   21.4348 N   0  0  0  0  0  0  0  0  0  0  0  0
    0.2531   14.0086   22.3796 C   0  0  0  0  0  0  0  0  0  0  0  0
    0.8835   13.9993   20.9943 C   0  0  0  0  0  0  0  0  0  0  0  0
 24 25  1  0  0  0
 25  1  1  0  0  0
  1  2  1  0  0  0
  2  3  2  0  0  0
  3 13  1  0  0  0
 13 14  2  0  0  0
 13 15  1  0  0  0
 15 17  1  0  0  0
 17 18  1  0  0  0
 18 19  1  0  0  0
 19 20  2  0  0  0
 20 21  1  0  0  0
 21 22  2  0  0  0
 22 23  1  0  0  0
  3  4  1  0  0  0
  4  5  2  0  0  0
  4  6  1  0  0  0
  6  7  1  0  0  0
  7  8  2  0  0  0
  8  9  1  0  0  0
  8 10  1  0  0  0
 10 11  2  0  0  0
 11 12  1  0  0  0
 12  1  1  0  0  0
 23 18  2  0  0  0
 12  6  2  0  0  0
 15 16  1  0  0  0
M  END
> <minimizedAffinity>
-9.32366

$$$$
OCNT-2310785


 25 28  0  0  0  0  0  0  0  0999 V2000
    4.3567   15.9460   21.7627 O   0  0  0  0  0  0  0  0  0  0  0  0
    3.3039   16.4436   21.3895 C   0  0  0  0  0  0  0  0  0  0  0  0
    3.1028   17.7713   21.0274 N   0  0  0  0  0  0  0  0  0  0  0  0
    2.1717   18.0125   20.7114 H   0  0  0  0  0  0  0  0  0  0  0  0
    4.0542   18.8161   20.9926 C   0  0  0  0  0  0  0  0  0  0  0  0
    5.0907   18.9354   21.9475 C   0  0  0  0  0  0  0  0  0  0  0  0
    5.9365   20.0439   21.7504 C   0  0  0  0  0  0  0  0  0  0  0  0
    7.0067   20.4574   22.4568 N   0  0  0  0  0  0  0  0  0  0  0  0
    7.4243   21.5734   21.8291 N   0  0  0  0  0  0  0  0  0  0  0  0
    6.6833   21.9165   20.7338 C   0  0  0  0  0  0  0  0  0  0  0  0
    5.7195   20.9501   20.6521 C   0  0  0  0  0  0  0  0  0  0  0  0
    4.7236   20.8791   19.6882 C   0  0  0  0  0  0  0  0  0  0  0  0
    3.8947   19.7562   19.9104 C   0  0  0  0  0  0  0  0  0  0  0  0
    8.2305   22.0548   22.2131 H   0  0  0  0  0  0  0  0  0  0  0  0
    2.0789   15.6308   21.2838 C   0  0  0  0  0  0  0  0  0  0  0  0
    1.4063   15.3449   20.1000 C   0  0  0  0  0  0  0  0  0  0  0  0
    0.0367   14.3631   20.4077 S   0  0  0  0  0  0  0  0  0  0  0  0
    0.3809   14.4159   22.0997 C   0  0  0  0  0  0  0  0  0  0  0  0
    1.4596   15.1123   22.4182 N   0  0  0  0  0  0  0  0  0  0  0  0
   -0.4980   13.7471   23.0740 C   0  0  0  0  0  0  0  0  0  0  0  0
   -0.9591   14.4400   24.1912 C   0  0  0  0  0  0  0  0  0  0  0  0
   -1.7621   13.7721   25.1121 C   0  0  0  0  0  0  0  0  0  0  0  0
   -2.0690   12.4332   24.9026 C   0  0  0  0  0  0  0  0  0  0  0  0
   -1.5611   11.8121   23.7722 C   0  0  0  0  0  0  0  0  0  0  0  0
   -0.7892   12.4364   22.8557 N   0  0  0  0  0  0  0  0  0  0  0  0
  1  2  2  0  0  0
  2  3  1  0  0  0
  3  5  1  0  0  0
  5  6  2  0  0  0
  6  7  1  0  0  0
  7  8  2  0  0  0
  8  9  1  0  0  0
  9 10  1  0  0  0
 10 11  2  0  0  0
 11 12  1  0  0  0
 12 13  2  0  0  0
  2 15  1  0  0  0
 15 16  2  0  0  0
 16 17  1  0  0  0
 17 18  1  0  0  0
 18 20  1  0  0  0
 20 21  2  0  0  0
 21 22  1  0  0  0
 22 23  2  0  0  0
 23 24  1  0  0  0
 24 25  2  0  0  0
 18 19  2  0  0  0
 13  5  1  0  0  0
 19 15  1  0  0  0
 11  7  1  0  0  0
 25 20  1  0  0  0
  3  4  1  0  0  0
  9 14  1  0  0  0
M  END
> <minimizedAffinity>
-6.80773

$$$$
OCNT-2310791


 23 25  0  0  0  0  0  0  0  0999 V2000
    2.4752   17.1515   20.5555 N   0  0  0  0  0  0  0  0  0  0  0  0
    2.8624   16.1707   21.5861 C   0  0  0  0  0  0  0  0  0  0  0  0
    4.3831   16.0567   21.6844 C   0  0  0  0  0  0  0  0  0  0  0  0
    5.0466   17.3922   22.0261 C   0  0  0  0  0  0  0  0  0  0  0  0
    4.2856   18.6001   21.4466 C   0  0  0  0  0  0  0  0  0  0  0  0
    3.4650   18.1866   20.2041 C   0  0  0  0  0  0  0  0  0  0  0  0
    5.1727   19.7600   21.2394 N   0  0  0  0  0  0  0  0  0  0  0  0
    6.1910   20.1064   22.2295 C   0  0  0  0  0  0  0  0  0  0  0  0
    7.3658   20.8894   21.6098 C   0  0  0  0  0  0  0  0  0  0  0  0
    7.0284   21.7158   20.4420 N   0  0  0  0  0  0  0  0  0  0  0  0
    5.5940   22.0685   20.4398 C   0  0  0  0  0  0  0  0  0  0  0  0
    4.7072   20.8117   20.4354 C   0  0  0  0  0  0  0  0  0  0  0  0
    3.6584   20.7640   19.7971 O   0  0  0  0  0  0  0  0  0  0  0  0
    7.1962   21.1620   19.5990 H   0  0  0  0  0  0  0  0  0  0  0  0
    0.6499   15.6741   19.7613 C   0  0  0  0  0  0  0  0  0  0  0  0
    1.4158   16.8650   19.6911 C   0  0  0  0  0  0  0  0  0  0  0  0
    1.0468   17.7918   18.6931 C   0  0  0  0  0  0  0  0  0  0  0  0
   -0.0008   17.5444   17.8007 C   0  0  0  0  0  0  0  0  0  0  0  0
   -0.3890   18.7110   16.5963 Cl  0  0  0  0  0  0  0  0  0  0  0  0
   -0.7267   16.3653   17.8748 C   0  0  0  0  0  0  0  0  0  0  0  0
   -0.4034   15.4329   18.8561 C   0  0  0  0  0  0  0  0  0  0  0  0
    0.9840   13.8591   21.5901 N   0  0  0  0  0  0  0  0  0  0  0  0
    0.8582   14.6801   20.7780 C   0  0  0  0  0  0  0  0  0  0  0  0
 22 23  3  0  0  0
 23 15  1  0  0  0
 15 16  2  0  0  0
 16  1  1  0  0  0
  1  2  1  0  0  0
  2  3  1  0  0  0
  3  4  1  0  0  0
  4  5  1  0  0  0
  5  7  1  0  0  0
  7  8  1  0  0  0
  8  9  1  0  0  0
  9 10  1  0  0  0
 10 11  1  0  0  0
 11 12  1  0  0  0
 12 13  2  0  0  0
  5  6  1  0  0  0
 16 17  1  0  0  0
 17 18  2  0  0  0
 18 19  1  0  0  0
 18 20  1  0  0  0
 20 21  2  0  0  0
 21 15  1  0  0  0
  6  1  1  0  0  0
 12  7  1  0  0  0
 10 14  1  0  0  0
M  END
> <minimizedAffinity>
-10.72287

$$$$
OCNT-2310795


 25 27  0  0  0  0  0  0  0  0999 V2000
    3.1338   20.0050   19.8380 C   0  0  0  0  0  0  0  0  0  0  0  0
    2.3324   20.8614   19.4681 O   0  0  0  0  0  0  0  0  0  0  0  0
    2.9686   18.6430   19.6986 N   0  0  0  0  0  0  0  0  0  0  0  0
    3.7390   18.0510   20.0080 H   0  0  0  0  0  0  0  0  0  0  0  0
    1.8569   17.9292   19.2033 C   0  0  0  0  0  0  0  0  0  0  0  0
    1.1399   18.2974   18.0646 C   0  0  0  0  0  0  0  0  0  0  0  0
    0.0206   17.5597   17.6656 C   0  0  0  0  0  0  0  0  0  0  0  0
   -0.3948   16.4500   18.3993 C   0  0  0  0  0  0  0  0  0  0  0  0
    0.3273   16.0625   19.5242 C   0  0  0  0  0  0  0  0  0  0  0  0
    1.4513   16.7927   19.9260 C   0  0  0  0  0  0  0  0  0  0  0  0
    2.1675   16.4779   21.0586 O   0  0  0  0  0  0  0  0  0  0  0  0
    2.0129   15.1307   21.4728 C   0  0  0  0  0  0  0  0  0  0  0  0
    0.6465   14.4743   21.3074 C   0  0  0  0  0  0  0  0  0  0  0  0
    0.2619   13.5328   21.9943 O   0  0  0  0  0  0  0  0  0  0  0  0
   -0.0973   14.9607   20.2679 N   0  0  0  0  0  0  0  0  0  0  0  0
   -0.9692   14.4924   20.0630 H   0  0  0  0  0  0  0  0  0  0  0  0
    5.0697   19.7995   21.5192 C   0  0  0  0  0  0  0  0  0  0  0  0
    6.3092   20.2585   21.9879 C   0  0  0  0  0  0  0  0  0  0  0  0
    6.8974   21.3909   21.4257 C   0  0  0  0  0  0  0  0  0  0  0  0
    6.2555   22.0688   20.3932 C   0  0  0  0  0  0  0  0  0  0  0  0
    5.0341   21.6002   19.9041 C   0  0  0  0  0  0  0  0  0  0  0  0
    4.4340   20.4512   20.4465 C   0  0  0  0  0  0  0  0  0  0  0  0
    4.4958   18.6757   22.0580 O   0  0  0  0  0  0  0  0  0  0  0  0
    5.4051   16.6107   21.2723 C   0  0  0  0  0  0  0  0  0  0  0  0
    5.4359   17.6436   22.3908 C   0  0  0  0  0  0  0  0  0  0  0  0
 24 25  1  0  0  0
 25 23  1  0  0  0
 23 17  1  0  0  0
 17 18  2  0  0  0
 18 19  1  0  0  0
 19 20  2  0  0  0
 20 21  1  0  0  0
 21 22  2  0  0  0
 22  1  1  0  0  0
  1  2  2  0  0  0
  1  3  1  0  0  0
  3  5  1  0  0  0
  5  6  1  0  0  0
  6  7  2  0  0  0
  7  8  1  0  0  0
  8  9  2  0  0  0
  9 10  1  0  0  0
 10 11  1  0  0  0
 11 12  1  0  0  0
 12 13  1  0  0  0
 13 14  2  0  0  0
 13 15  1  0  0  0
 22 17  1  0  0  0
 10  5  2  0  0  0
 15  9  1  0  0  0
  3  4  1  0  0  0
 15 16  1  0  0  0
M  END
> <minimizedAffinity>
-10.14027

$$$$
OCNT-2310796


 23 25  0  0  0  0  0  0  0  0999 V2000
    2.7380   20.5385   19.1795 O   0  0  0  0  0  0  0  0  0  0  0  0
    2.9230   19.4423   19.7016 C   0  0  0  0  0  0  0  0  0  0  0  0
    4.0283   19.1367   20.4762 N   0  0  0  0  0  0  0  0  0  0  0  0
    4.0448   18.1963   20.8691 H   0  0  0  0  0  0  0  0  0  0  0  0
    1.9625   18.3516   19.5349 C   0  0  0  0  0  0  0  0  0  0  0  0
    0.9680   18.2716   18.5778 C   0  0  0  0  0  0  0  0  0  0  0  0
    0.1856   17.0754   18.6684 C   0  0  0  0  0  0  0  0  0  0  0  0
    0.6235   16.2772   19.7087 C   0  0  0  0  0  0  0  0  0  0  0  0
    0.0737   14.9490   20.1343 C   0  0  0  0  0  0  0  0  0  0  0  0
    0.0743   13.9303   18.9932 C   0  0  0  0  0  0  0  0  0  0  0  0
   -1.0031   14.1723   17.9314 C   0  0  0  0  0  0  0  0  0  0  0  0
   -0.7766   15.3971   17.0401 C   0  0  0  0  0  0  0  0  0  0  0  0
   -0.9550   16.7363   17.7565 C   0  0  0  0  0  0  0  0  0  0  0  0
    1.9438   16.9699   20.5419 S   0  0  0  0  0  0  0  0  0  0  0  0
    5.1085   19.9763   20.8316 C   0  0  0  0  0  0  0  0  0  0  0  0
    5.3282   21.2399   20.2835 C   0  0  0  0  0  0  0  0  0  0  0  0
    6.3549   22.0595   20.6283 N   0  0  0  0  0  0  0  0  0  0  0  0
    7.2131   21.6025   21.5569 C   0  0  0  0  0  0  0  0  0  0  0  0
    7.0942   20.3636   22.1621 C   0  0  0  0  0  0  0  0  0  0  0  0
    6.0230   19.5290   21.8070 C   0  0  0  0  0  0  0  0  0  0  0  0
    5.9431   18.1610   22.4344 C   0  0  0  0  0  0  0  0  0  0  0  0
    4.7915   18.0519   23.2634 O   0  0  0  0  0  0  0  0  0  0  0  0
    4.8402   18.7844   23.9050 H   0  0  0  0  0  0  0  0  0  0  0  0
  1  2  2  0  0  0
  2  3  1  0  0  0
  3 15  1  0  0  0
 15 16  2  0  0  0
 16 17  1  0  0  0
 17 18  2  0  0  0
 18 19  1  0  0  0
 19 20  2  0  0  0
 20 21  1  0  0  0
 21 22  1  0  0  0
  2  5  1  0  0  0
  5  6  2  0  0  0
  6  7  1  0  0  0
  7  8  2  0  0  0
  8  9  1  0  0  0
  9 10  1  0  0  0
 10 11  1  0  0  0
 11 12  1  0  0  0
 12 13  1  0  0  0
  8 14  1  0  0  0
 20 15  1  0  0  0
 14  5  1  0  0  0
 13  7  1  0  0  0
  3  4  1  0  0  0
 22 23  1  0  0  0
M  END
> <minimizedAffinity>
-9.33534

$$$$
OCNT-2310798


 28 31  0  0  0  0  0  0  0  0999 V2000
    2.6606   15.1472   21.9012 N   0  0  0  0  0  0  0  0  0  0  0  0
    4.0182   15.2695   21.7936 C   0  0  0  0  0  0  0  0  0  0  0  0
    4.7366   14.3417   21.4301 O   0  0  0  0  0  0  0  0  0  0  0  0
    4.5125   16.5307   22.0915 N   0  0  0  0  0  0  0  0  0  0  0  0
    3.6775   17.6943   22.3889 C   0  0  0  0  0  0  0  0  0  0  0  0
    4.4487   19.0119   22.3240 C   0  0  0  0  0  0  0  0  0  0  0  0
    5.3401   19.0375   21.0737 C   0  0  0  0  0  0  0  0  0  0  0  0
    6.3153   17.8416   21.0462 C   0  0  0  0  0  0  0  0  0  0  0  0
    5.9517   16.7558   22.0578 C   0  0  0  0  0  0  0  0  0  0  0  0
    2.2067   15.7489   22.5747 H   0  0  0  0  0  0  0  0  0  0  0  0
    6.0760   20.3414   20.9367 C   0  0  0  0  0  0  0  0  0  0  0  0
    7.3776   20.6871   21.2457 C   0  0  0  0  0  0  0  0  0  0  0  0
    7.4923   22.0434   20.9021 C   0  0  0  0  0  0  0  0  0  0  0  0
    6.3583   22.5352   20.4047 N   0  0  0  0  0  0  0  0  0  0  0  0
    5.5153   21.4853   20.4169 N   0  0  0  0  0  0  0  0  0  0  0  0
    4.1742   21.6592   19.9093 C   0  0  0  0  0  0  0  0  0  0  0  0
    1.9741   13.8971   21.6479 C   0  0  0  0  0  0  0  0  0  0  0  0
    0.4840   14.1441   21.4566 C   0  0  0  0  0  0  0  0  0  0  0  0
   -0.4831   13.2618   22.2381 C   0  0  0  0  0  0  0  0  0  0  0  0
   -0.3010   14.6898   22.6425 C   0  0  0  0  0  0  0  0  0  0  0  0
    0.2619   15.9106   19.5813 C   0  0  0  0  0  0  0  0  0  0  0  0
   -0.0840   16.2752   18.2741 C   0  0  0  0  0  0  0  0  0  0  0  0
   -0.6487   15.3370   17.4125 C   0  0  0  0  0  0  0  0  0  0  0  0
   -0.8561   14.0336   17.8495 C   0  0  0  0  0  0  0  0  0  0  0  0
   -0.4910   13.6659   19.1466 C   0  0  0  0  0  0  0  0  0  0  0  0
    0.0762   14.5895   20.0464 C   0  0  0  0  0  0  0  0  0  0  0  0
    1.5262   17.8765   19.7823 C   0  0  0  0  0  0  0  0  0  0  0  0
    0.8691   16.7962   20.4425 O   0  0  0  0  0  0  0  0  0  0  0  0
 27 28  1  0  0  0
 28 21  1  0  0  0
 21 22  2  0  0  0
 22 23  1  0  0  0
 23 24  2  0  0  0
 24 25  1  0  0  0
 25 26  2  0  0  0
 26 18  1  0  0  0
 18 17  1  0  0  0
 17  1  1  0  0  0
  1  2  1  0  0  0
  2  3  2  0  0  0
  2  4  1  0  0  0
  4  5  1  0  0  0
  5  6  1  0  0  0
  6  7  1  0  0  0
  7 11  1  0  0  0
 11 12  2  0  0  0
 12 13  1  0  0  0
 13 14  2  0  0  0
 14 15  1  0  0  0
 15 16  1  0  0  0
  7  8  1  0  0  0
  8  9  1  0  0  0
 18 19  1  0  0  0
 19 20  1  0  0  0
 26 21  1  0  0  0
 20 18  1  0  0  0
  9  4  1  0  0  0
 15 11  1  0  0  0
  1 10  1  0  0  0
M  END
> <minimizedAffinity>
-3.23854

$$$$
OCNT-2310801


 28 31  0  0  0  0  0  0  0  0999 V2000
   -0.2876   16.6575   19.3837 N   0  0  0  0  0  0  0  0  0  0  0  0
   -0.7311   16.5372   18.0792 C   0  0  0  0  0  0  0  0  0  0  0  0
   -0.4419   15.6508   17.2812 O   0  0  0  0  0  0  0  0  0  0  0  0
   -0.6940   17.4532   19.8712 H   0  0  0  0  0  0  0  0  0  0  0  0
    3.9388   15.7086   21.7323 N   0  0  0  0  0  0  0  0  0  0  0  0
    4.4464   14.6345   22.3724 N   0  0  0  0  0  0  0  0  0  0  0  0
    3.4782   13.7219   22.2664 C   0  0  0  0  0  0  0  0  0  0  0  0
    2.3533   14.1989   21.5605 C   0  0  0  0  0  0  0  0  0  0  0  0
    1.1077   13.6786   21.1752 C   0  0  0  0  0  0  0  0  0  0  0  0
    0.2232   14.4927   20.4502 C   0  0  0  0  0  0  0  0  0  0  0  0
    0.5604   15.8031   20.1085 C   0  0  0  0  0  0  0  0  0  0  0  0
    1.8055   16.3305   20.4898 C   0  0  0  0  0  0  0  0  0  0  0  0
    2.6802   15.5069   21.2169 C   0  0  0  0  0  0  0  0  0  0  0  0
    4.4068   17.8871   22.7834 C   0  0  0  0  0  0  0  0  0  0  0  0
    4.7307   16.9217   21.6574 C   0  0  0  0  0  0  0  0  0  0  0  0
   -1.6295   17.7132   17.6588 C   0  0  0  0  0  0  0  0  0  0  0  0
   -0.9411   19.0204   17.8326 N   0  0  0  0  0  0  0  0  0  0  0  0
   -0.5214   19.1709   19.2456 C   0  0  0  0  0  0  0  0  0  0  0  0
    0.5059   20.3032   19.4834 C   0  0  0  0  0  0  0  0  0  0  0  0
    1.7014   20.1411   18.6407 N   0  0  0  0  0  0  0  0  0  0  0  0
    1.6231   19.1044   17.6020 C   0  0  0  0  0  0  0  0  0  0  0  0
    0.2341   19.1399   16.9228 C   0  0  0  0  0  0  0  0  0  0  0  0
    2.9489   20.2911   19.2451 C   0  0  0  0  0  0  0  0  0  0  0  0
    3.3054   21.4964   19.8546 C   0  0  0  0  0  0  0  0  0  0  0  0
    4.5625   21.6421   20.4413 C   0  0  0  0  0  0  0  0  0  0  0  0
    5.4526   20.5818   20.4030 C   0  0  0  0  0  0  0  0  0  0  0  0
    5.0432   19.4246   19.7704 C   0  0  0  0  0  0  0  0  0  0  0  0
    3.8288   19.2660   19.1966 N   0  0  0  0  0  0  0  0  0  0  0  0
 14 15  1  0  0  0
 15  5  1  0  0  0
  5  6  1  0  0  0
  6  7  2  0  0  0
  7  8  1  0  0  0
  8  9  2  0  0  0
  9 10  1  0  0  0
 10 11  2  0  0  0
 11  1  1  0  0  0
  1  2  1  0  0  0
  2  3  2  0  0  0
  2 16  1  0  0  0
 16 17  1  0  0  0
 17 18  1  0  0  0
 18 19  1  0  0  0
 19 20  1  0  0  0
 20 23  1  0  0  0
 23 24  2  0  0  0
 24 25  1  0  0  0
 25 26  2  0  0  0
 26 27  1  0  0  0
 27 28  2  0  0  0
 20 21  1  0  0  0
 21 22  1  0  0  0
 11 12  1  0  0  0
 12 13  2  0  0  0
 13  5  1  0  0  0
 13  8  1  0  0  0
 22 17  1  0  0  0
 28 23  1  0  0  0
  1  4  1  0  0  0
M  END
> <minimizedAffinity>
-6.44918

$$$$
OCNT-2310816


 22 24  0  0  0  0  0  0  0  0999 V2000
    2.8670   16.8117   20.7208 C   0  0  0  0  0  0  0  0  0  0  0  0
    3.7851   16.1715   21.7628 C   0  0  0  0  0  0  0  0  0  0  0  0
    5.0389   17.0399   21.7035 C   0  0  0  0  0  0  0  0  0  0  0  0
    4.5232   18.3639   21.4069 N   0  0  0  0  0  0  0  0  0  0  0  0
    3.1499   18.3198   20.9102 C   0  0  0  0  0  0  0  0  0  0  0  0
    5.2717   19.5087   21.3054 C   0  0  0  0  0  0  0  0  0  0  0  0
    6.3742   19.5980   22.0928 N   0  0  0  0  0  0  0  0  0  0  0  0
    7.1491   20.7049   22.0124 C   0  0  0  0  0  0  0  0  0  0  0  0
    6.8900   21.7700   21.1711 C   0  0  0  0  0  0  0  0  0  0  0  0
    5.7666   21.6922   20.3632 C   0  0  0  0  0  0  0  0  0  0  0  0
    4.9588   20.5597   20.4308 C   0  0  0  0  0  0  0  0  0  0  0  0
    3.8748   20.5174   19.6392 F   0  0  0  0  0  0  0  0  0  0  0  0
    1.4528   16.4916   20.9409 N   0  0  0  0  0  0  0  0  0  0  0  0
    1.3408   15.5998   21.4258 H   0  0  0  0  0  0  0  0  0  0  0  0
   -1.0367   13.8568   17.6069 C   0  0  0  0  0  0  0  0  0  0  0  0
   -0.5228   15.1440   18.1766 C   0  0  0  0  0  0  0  0  0  0  0  0
    0.2361   15.1412   19.3293 C   0  0  0  0  0  0  0  0  0  0  0  0
    0.6744   16.3643   19.7906 C   0  0  0  0  0  0  0  0  0  0  0  0
    0.4057   17.5086   19.1491 N   0  0  0  0  0  0  0  0  0  0  0  0
   -0.3314   17.4212   18.0271 C   0  0  0  0  0  0  0  0  0  0  0  0
   -0.6665   18.6960   17.3190 C   0  0  0  0  0  0  0  0  0  0  0  0
   -0.8262   16.2787   17.5189 N   0  0  0  0  0  0  0  0  0  0  0  0
 15 16  1  0  0  0
 16 17  1  0  0  0
 17 18  2  0  0  0
 18 13  1  0  0  0
 13  1  1  0  0  0
  1  2  1  0  0  0
  2  3  1  0  0  0
  3  4  1  0  0  0
  4  6  1  0  0  0
  6  7  1  0  0  0
  7  8  2  0  0  0
  8  9  1  0  0  0
  9 10  2  0  0  0
 10 11  1  0  0  0
 11 12  1  0  0  0
  4  5  1  0  0  0
 18 19  1  0  0  0
 19 20  2  0  0  0
 20 21  1  0  0  0
 20 22  1  0  0  0
 22 16  2  0  0  0
  5  1  1  0  0  0
 11  6  2  0  0  0
 13 14  1  0  0  0
M  END
> <minimizedAffinity>
-9.47789

$$$$
OCNT-2310825


 22 24  0  0  0  0  0  0  0  0999 V2000
    1.4890   17.4932   19.9689 C   0  0  0  0  0  0  0  0  0  0  0  0
    1.1733   18.6748   19.8613 O   0  0  0  0  0  0  0  0  0  0  0  0
    2.5940   17.0922   20.6861 N   0  0  0  0  0  0  0  0  0  0  0  0
    2.8738   16.1177   20.6185 H   0  0  0  0  0  0  0  0  0  0  0  0
    3.5312   18.0509   21.2655 C   0  0  0  0  0  0  0  0  0  0  0  0
    4.8386   17.3790   21.6885 C   0  0  0  0  0  0  0  0  0  0  0  0
    5.7283   18.2724   22.3628 O   0  0  0  0  0  0  0  0  0  0  0  0
    5.9038   19.4782   21.7386 C   0  0  0  0  0  0  0  0  0  0  0  0
    6.9908   20.2371   22.1729 C   0  0  0  0  0  0  0  0  0  0  0  0
    7.2505   21.4820   21.6006 C   0  0  0  0  0  0  0  0  0  0  0  0
    6.4184   21.9712   20.5957 C   0  0  0  0  0  0  0  0  0  0  0  0
    5.3226   21.2195   20.1693 C   0  0  0  0  0  0  0  0  0  0  0  0
    5.0491   19.9715   20.7469 C   0  0  0  0  0  0  0  0  0  0  0  0
    3.8629   19.1757   20.2806 C   0  0  0  0  0  0  0  0  0  0  0  0
    0.5017   15.1341   19.7655 C   0  0  0  0  0  0  0  0  0  0  0  0
   -0.2641   14.2080   19.1318 N   0  0  0  0  0  0  0  0  0  0  0  0
   -0.8952   14.5910   18.0014 C   0  0  0  0  0  0  0  0  0  0  0  0
   -0.7999   15.8605   17.4642 C   0  0  0  0  0  0  0  0  0  0  0  0
   -0.0106   16.7951   18.1282 C   0  0  0  0  0  0  0  0  0  0  0  0
    0.6607   16.4433   19.3086 C   0  0  0  0  0  0  0  0  0  0  0  0
    0.3039   14.1644   21.8989 C   0  0  0  0  0  0  0  0  0  0  0  0
    1.1616   14.7423   20.9167 O   0  0  0  0  0  0  0  0  0  0  0  0
 21 22  1  0  0  0
 22 15  1  0  0  0
 15 16  1  0  0  0
 16 17  2  0  0  0
 17 18  1  0  0  0
 18 19  2  0  0  0
 19 20  1  0  0  0
 20  1  1  0  0  0
  1  2  2  0  0  0
  1  3  1  0  0  0
  3  5  1  0  0  0
  5  6  1  0  0  0
  6  7  1  0  0  0
  7  8  1  0  0  0
  8  9  2  0  0  0
  9 10  1  0  0  0
 10 11  2  0  0  0
 11 12  1  0  0  0
 12 13  2  0  0  0
 13 14  1  0  0  0
 20 15  2  0  0  0
 14  5  1  0  0  0
 13  8  1  0  0  0
  3  4  1  0  0  0
M  END
> <minimizedAffinity>
-10.56681

$$$$
OCNT-2310827


 26 29  0  0  0  0  0  0  0  0999 V2000
    1.0491   19.7445   17.5550 O   0  0  0  0  0  0  0  0  0  0  0  0
    1.3182   19.4822   18.7223 C   0  0  0  0  0  0  0  0  0  0  0  0
    0.4988   18.7392   19.5463 N   0  0  0  0  0  0  0  0  0  0  0  0
    0.8655   18.4814   20.4590 H   0  0  0  0  0  0  0  0  0  0  0  0
   -0.7104   18.0974   19.0631 C   0  0  0  0  0  0  0  0  0  0  0  0
   -1.1174   18.6949   17.7165 C   0  0  0  0  0  0  0  0  0  0  0  0
   -2.2040   17.8301   17.1099 C   0  0  0  0  0  0  0  0  0  0  0  0
   -1.7242   16.5161   16.8145 O   0  0  0  0  0  0  0  0  0  0  0  0
   -1.0600   15.9087   17.8465 C   0  0  0  0  0  0  0  0  0  0  0  0
   -0.8958   14.5255   17.7291 C   0  0  0  0  0  0  0  0  0  0  0  0
   -0.2459   13.8109   18.7335 C   0  0  0  0  0  0  0  0  0  0  0  0
    0.2347   14.4869   19.8471 C   0  0  0  0  0  0  0  0  0  0  0  0
    0.8482   13.8016   20.8206 F   0  0  0  0  0  0  0  0  0  0  0  0
    0.0898   15.8656   19.9675 C   0  0  0  0  0  0  0  0  0  0  0  0
   -0.5421   16.6011   18.9507 C   0  0  0  0  0  0  0  0  0  0  0  0
    2.5871   19.9525   19.3454 C   0  0  0  0  0  0  0  0  0  0  0  0
    3.5459   19.0618   19.7818 C   0  0  0  0  0  0  0  0  0  0  0  0
    4.7071   19.5774   20.3583 C   0  0  0  0  0  0  0  0  0  0  0  0
    4.8860   20.9533   20.4796 C   0  0  0  0  0  0  0  0  0  0  0  0
    3.8995   21.7754   20.0461 N   0  0  0  0  0  0  0  0  0  0  0  0
    2.7457   21.2865   19.4695 N   0  0  0  0  0  0  0  0  0  0  0  0
    6.0136   21.4894   21.0605 N   0  0  0  0  0  0  0  0  0  0  0  0
    6.1570   21.6894   22.4985 C   0  0  0  0  0  0  0  0  0  0  0  0
    7.6594   21.5509   22.7515 C   0  0  0  0  0  0  0  0  0  0  0  0
    8.2844   21.9042   21.4112 C   0  0  0  0  0  0  0  0  0  0  0  0
    7.3073   21.2851   20.4170 C   0  0  0  0  0  0  0  0  0  0  0  0
  1  2  2  0  0  0
  2  3  1  0  0  0
  3  5  1  0  0  0
  5  6  1  0  0  0
  6  7  1  0  0  0
  7  8  1  0  0  0
  8  9  1  0  0  0
  9 10  1  0  0  0
 10 11  2  0  0  0
 11 12  1  0  0  0
 12 13  1  0  0  0
 12 14  2  0  0  0
 14 15  1  0  0  0
  2 16  1  0  0  0
 16 17  2  0  0  0
 17 18  1  0  0  0
 18 19  2  0  0  0
 19 22  1  0  0  0
 22 23  1  0  0  0
 23 24  1  0  0  0
 24 25  1  0  0  0
 25 26  1  0  0  0
 19 20  1  0  0  0
 20 21  2  0  0  0
 15  5  1  0  0  0
 21 16  1  0  0  0
 15  9  2  0  0  0
 26 22  1  0  0  0
  3  4  1  0  0  0
M  END
> <minimizedAffinity>
-6.32060

$$$$
OCNT-2310828


 23 25  0  0  0  0  0  0  0  0999 V2000
    2.9849   16.7833   21.2396 C   0  0  0  0  0  0  0  0  0  0  0  0
    2.9377   15.5512   21.8914 C   0  0  0  0  0  0  0  0  0  0  0  0
    1.9516   14.6158   21.5660 C   0  0  0  0  0  0  0  0  0  0  0  0
    0.9967   14.9081   20.5919 C   0  0  0  0  0  0  0  0  0  0  0  0
    1.0117   16.1458   19.9413 C   0  0  0  0  0  0  0  0  0  0  0  0
    2.0224   17.0667   20.2612 C   0  0  0  0  0  0  0  0  0  0  0  0
    0.0345   16.4954   18.9117 C   0  0  0  0  0  0  0  0  0  0  0  0
   -0.5368   15.6367   18.0868 N   0  0  0  0  0  0  0  0  0  0  0  0
   -1.3998   16.3185   17.2683 N   0  0  0  0  0  0  0  0  0  0  0  0
   -1.3314   17.5945   17.5769 C   0  0  0  0  0  0  0  0  0  0  0  0
   -2.0991   18.6894   16.9423 C   0  0  0  0  0  0  0  0  0  0  0  0
   -0.4142   17.7565   18.5864 N   0  0  0  0  0  0  0  0  0  0  0  0
    0.0350   19.0109   19.1338 C   0  0  0  0  0  0  0  0  0  0  0  0
    4.3845   18.7738   20.6292 C   0  0  0  0  0  0  0  0  0  0  0  0
    4.0324   18.9060   19.4626 O   0  0  0  0  0  0  0  0  0  0  0  0
    3.9594   17.7728   21.4857 N   0  0  0  0  0  0  0  0  0  0  0  0
    4.4424   17.6994   22.3706 H   0  0  0  0  0  0  0  0  0  0  0  0
    4.4739   21.8918   20.1447 C   0  0  0  0  0  0  0  0  0  0  0  0
    5.4206   21.1274   21.0152 C   0  0  0  0  0  0  0  0  0  0  0  0
    6.4580   21.7124   21.7176 C   0  0  0  0  0  0  0  0  0  0  0  0
    7.3600   20.5895   22.6275 S   0  0  0  0  0  0  0  0  0  0  0  0
    6.3721   19.2986   22.1061 C   0  0  0  0  0  0  0  0  0  0  0  0
    5.3754   19.6909   21.2255 C   0  0  0  0  0  0  0  0  0  0  0  0
 18 19  1  0  0  0
 19 20  2  0  0  0
 20 21  1  0  0  0
 21 22  1  0  0  0
 22 23  2  0  0  0
 23 14  1  0  0  0
 14 15  2  0  0  0
 14 16  1  0  0  0
 16  1  1  0  0  0
  1  2  2  0  0  0
  2  3  1  0  0  0
  3  4  2  0  0  0
  4  5  1  0  0  0
  5  7  1  0  0  0
  7  8  2  0  0  0
  8  9  1  0  0  0
  9 10  2  0  0  0
 10 11  1  0  0  0
 10 12  1  0  0  0
 12 13  1  0  0  0
  5  6  2  0  0  0
 23 19  1  0  0  0
  6  1  1  0  0  0
 12  7  1  0  0  0
 16 17  1  0  0  0
M  END
> <minimizedAffinity>
-10.36770

$$$$
OCNT-2310831


 26 28  0  0  0  0  0  0  0  0999 V2000
    2.5733   15.5807   21.1089 C   0  0  0  0  0  0  0  0  0  0  0  0
    3.3716   16.2512   22.2344 C   0  0  0  0  0  0  0  0  0  0  0  0
    4.1636   17.4466   21.7064 C   0  0  0  0  0  0  0  0  0  0  0  0
    3.2520   18.3936   21.0510 N   0  0  0  0  0  0  0  0  0  0  0  0
    2.4995   17.8150   19.9263 C   0  0  0  0  0  0  0  0  0  0  0  0
    1.6835   16.6221   20.4162 C   0  0  0  0  0  0  0  0  0  0  0  0
    3.9003   19.5969   20.6830 C   0  0  0  0  0  0  0  0  0  0  0  0
    3.2934   20.4368   19.7668 C   0  0  0  0  0  0  0  0  0  0  0  0
    3.9556   21.5984   19.4488 C   0  0  0  0  0  0  0  0  0  0  0  0
    5.1389   21.9448   19.9779 N   0  0  0  0  0  0  0  0  0  0  0  0
    5.6569   21.0854   20.8722 C   0  0  0  0  0  0  0  0  0  0  0  0
    5.0782   19.9260   21.2448 N   0  0  0  0  0  0  0  0  0  0  0  0
    6.9830   21.4525   21.4992 C   0  0  0  0  0  0  0  0  0  0  0  0
    7.5548   20.2771   22.2910 C   0  0  0  0  0  0  0  0  0  0  0  0
    7.9715   21.9342   20.4379 C   0  0  0  0  0  0  0  0  0  0  0  0
    0.6970   14.8448   22.4446 N   0  0  0  0  0  0  0  0  0  0  0  0
    1.7402   14.4125   21.6442 C   0  0  0  0  0  0  0  0  0  0  0  0
    2.0277   13.2519   21.3746 O   0  0  0  0  0  0  0  0  0  0  0  0
    0.6138   15.8332   22.6219 H   0  0  0  0  0  0  0  0  0  0  0  0
   -3.1779   11.6037   24.9948 C   0  0  0  0  0  0  0  0  0  0  0  0
   -2.1384   12.4680   24.3576 C   0  0  0  0  0  0  0  0  0  0  0  0
   -1.8618   13.7479   24.8310 C   0  0  0  0  0  0  0  0  0  0  0  0
   -0.9066   14.5310   24.1824 C   0  0  0  0  0  0  0  0  0  0  0  0
   -0.2527   14.0203   23.0641 C   0  0  0  0  0  0  0  0  0  0  0  0
   -0.5206   12.7950   22.5878 N   0  0  0  0  0  0  0  0  0  0  0  0
   -1.4484   12.0500   23.2286 C   0  0  0  0  0  0  0  0  0  0  0  0
 20 21  1  0  0  0
 21 22  2  0  0  0
 22 23  1  0  0  0
 23 24  2  0  0  0
 24 16  1  0  0  0
 16 17  1  0  0  0
 17 18  2  0  0  0
 17  1  1  0  0  0
  1  2  1  0  0  0
  2  3  1  0  0  0
  3  4  1  0  0  0
  4  7  1  0  0  0
  7  8  1  0  0  0
  8  9  2  0  0  0
  9 10  1  0  0  0
 10 11  2  0  0  0
 11 13  1  0  0  0
 13 14  1  0  0  0
 13 15  1  0  0  0
 11 12  1  0  0  0
  4  5  1  0  0  0
  5  6  1  0  0  0
 24 25  1  0  0  0
 25 26  2  0  0  0
 26 21  1  0  0  0
  6  1  1  0  0  0
 12  7  2  0  0  0
 16 19  1  0  0  0
M  END
> <minimizedAffinity>
-5.61560

$$$$
OCNT-2310835


 25 26  0  0  0  0  0  0  0  0999 V2000
    2.0470   18.4643   19.0752 N   0  0  0  0  0  0  0  0  0  0  0  0
    1.9223   19.8063   19.3711 C   0  0  0  0  0  0  0  0  0  0  0  0
    0.8689   20.4343   19.3115 O   0  0  0  0  0  0  0  0  0  0  0  0
    2.9733   18.0591   19.1642 H   0  0  0  0  0  0  0  0  0  0  0  0
    0.8409   16.4318   19.4996 C   0  0  0  0  0  0  0  0  0  0  0  0
   -0.1188   15.4772   19.1520 C   0  0  0  0  0  0  0  0  0  0  0  0
   -0.8534   15.6221   17.9736 C   0  0  0  0  0  0  0  0  0  0  0  0
   -0.6332   16.7174   17.1422 C   0  0  0  0  0  0  0  0  0  0  0  0
    0.3224   17.6772   17.4819 C   0  0  0  0  0  0  0  0  0  0  0  0
    1.0632   17.5437   18.6573 C   0  0  0  0  0  0  0  0  0  0  0  0
    1.6194   16.3921   20.6339 O   0  0  0  0  0  0  0  0  0  0  0  0
    1.7527   15.1338   21.2965 C   0  0  0  0  0  0  0  0  0  0  0  0
    3.7520   13.8183   22.0737 C   0  0  0  0  0  0  0  0  0  0  0  0
    3.0311   15.1625   22.1480 C   0  0  0  0  0  0  0  0  0  0  0  0
    3.9666   16.2929   21.7126 C   0  0  0  0  0  0  0  0  0  0  0  0
    3.1699   20.4591   19.7753 C   0  0  0  0  0  0  0  0  0  0  0  0
    3.4085   21.8205   19.8181 C   0  0  0  0  0  0  0  0  0  0  0  0
    4.7274   22.1327   20.2544 C   0  0  0  0  0  0  0  0  0  0  0  0
    5.4738   21.0048   20.5372 C   0  0  0  0  0  0  0  0  0  0  0  0
    4.5589   19.5821   20.2689 S   0  0  0  0  0  0  0  0  0  0  0  0
    6.8510   20.9733   21.0018 C   0  0  0  0  0  0  0  0  0  0  0  0
    7.1550   20.0757   21.9874 N   0  0  0  0  0  0  0  0  0  0  0  0
    7.7406   21.6977   20.5626 O   0  0  0  0  0  0  0  0  0  0  0  0
    6.4635   19.4550   22.3807 H   0  0  0  0  0  0  0  0  0  0  0  0
    8.1091   20.0424   22.3171 H   0  0  0  0  0  0  0  0  0  0  0  0
 13 14  1  0  0  0
 14 15  1  0  0  0
 14 12  1  0  0  0
 12 11  1  0  0  0
 11  5  1  0  0  0
  5  6  2  0  0  0
  6  7  1  0  0  0
  7  8  2  0  0  0
  8  9  1  0  0  0
  9 10  2  0  0  0
 10  1  1  0  0  0
  1  2  1  0  0  0
  2  3  2  0  0  0
  2 16  1  0  0  0
 16 17  2  0  0  0
 17 18  1  0  0  0
 18 19  2  0  0  0
 19 21  1  0  0  0
 21 22  1  0  0  0
 21 23  2  0  0  0
 19 20  1  0  0  0
 10  5  1  0  0  0
 20 16  1  0  0  0
  1  4  1  0  0  0
 22 24  1  0  0  0
 22 25  1  0  0  0
M  END
> <minimizedAffinity>
-9.22842

$$$$
OCNT-2310840


 22 25  0  0  0  0  0  0  0  0999 V2000
    0.8620   16.4076   19.9207 C   0  0  0  0  0  0  0  0  0  0  0  0
    1.0720   15.2817   20.6916 C   0  0  0  0  0  0  0  0  0  0  0  0
    2.5094   15.4505   21.6017 S   0  0  0  0  0  0  0  0  0  0  0  0
    2.7699   17.0121   20.9170 C   0  0  0  0  0  0  0  0  0  0  0  0
    1.8360   17.3805   20.0576 N   0  0  0  0  0  0  0  0  0  0  0  0
    3.9398   17.8459   21.2670 C   0  0  0  0  0  0  0  0  0  0  0  0
    4.9022   17.4736   22.2229 C   0  0  0  0  0  0  0  0  0  0  0  0
    5.9947   18.3016   22.5096 C   0  0  0  0  0  0  0  0  0  0  0  0
    6.1435   19.5133   21.8440 C   0  0  0  0  0  0  0  0  0  0  0  0
    7.2482   20.2608   22.1594 O   0  0  0  0  0  0  0  0  0  0  0  0
    7.4736   21.2914   21.1902 C   0  0  0  0  0  0  0  0  0  0  0  0
    6.1754   22.0085   20.8576 C   0  0  0  0  0  0  0  0  0  0  0  0
    5.2453   21.1102   20.2418 O   0  0  0  0  0  0  0  0  0  0  0  0
    5.1852   19.9153   20.9127 C   0  0  0  0  0  0  0  0  0  0  0  0
    4.1041   19.0835   20.6178 C   0  0  0  0  0  0  0  0  0  0  0  0
   -2.5359   18.5825   17.2440 O   0  0  0  0  0  0  0  0  0  0  0  0
   -1.2547   17.9901   16.9235 S   0  0  0  0  0  0  0  0  0  0  0  0
   -0.4832   18.3919   15.7655 O   0  0  0  0  0  0  0  0  0  0  0  0
   -1.4385   16.2148   16.8942 C   0  0  0  0  0  0  0  0  0  0  0  0
   -0.3373   15.6913   17.8052 C   0  0  0  0  0  0  0  0  0  0  0  0
   -0.2660   16.6807   18.9771 C   0  0  0  0  0  0  0  0  0  0  0  0
   -0.2003   18.0761   18.3587 C   0  0  0  0  0  0  0  0  0  0  0  0
 16 17  2  0  0  0
 17 18  2  0  0  0
 17 19  1  0  0  0
 19 20  1  0  0  0
 20 21  1  0  0  0
 21  1  1  0  0  0
  1  2  2  0  0  0
  2  3  1  0  0  0
  3  4  1  0  0  0
  4  6  1  0  0  0
  6  7  1  0  0  0
  7  8  2  0  0  0
  8  9  1  0  0  0
  9 10  1  0  0  0
 10 11  1  0  0  0
 11 12  1  0  0  0
 12 13  1  0  0  0
 13 14  1  0  0  0
 14 15  1  0  0  0
  4  5  2  0  0  0
 21 22  1  0  0  0
 22 17  1  0  0  0
  5  1  1  0  0  0
 15  6  2  0  0  0
 14  9  2  0  0  0
M  END
> <minimizedAffinity>
-8.55115

$$$$
OCNT-2310853


 25 27  0  0  0  0  0  0  0  0999 V2000
   -0.1687   15.3224   19.5930 C   0  0  0  0  0  0  0  0  0  0  0  0
    1.0661   15.4188   20.4447 C   0  0  0  0  0  0  0  0  0  0  0  0
    1.9351   16.5141   20.2881 C   0  0  0  0  0  0  0  0  0  0  0  0
    3.1152   16.6118   21.0397 C   0  0  0  0  0  0  0  0  0  0  0  0
    3.4245   15.6051   21.9694 C   0  0  0  0  0  0  0  0  0  0  0  0
    2.5468   14.5409   22.1747 C   0  0  0  0  0  0  0  0  0  0  0  0
    1.3603   14.4651   21.4315 C   0  0  0  0  0  0  0  0  0  0  0  0
    4.0448   17.6624   20.9173 N   0  0  0  0  0  0  0  0  0  0  0  0
    4.6670   18.3763   21.9347 C   0  0  0  0  0  0  0  0  0  0  0  0
    4.5568   18.1592   23.1396 O   0  0  0  0  0  0  0  0  0  0  0  0
    4.2174   17.9858   19.9645 H   0  0  0  0  0  0  0  0  0  0  0  0
    5.6614   19.4011   21.4218 C   0  0  0  0  0  0  0  0  0  0  0  0
    6.1007   20.3996   22.5040 C   0  0  0  0  0  0  0  0  0  0  0  0
    6.5243   21.6122   21.6961 C   0  0  0  0  0  0  0  0  0  0  0  0
    5.5881   21.6011   20.5982 N   0  0  0  0  0  0  0  0  0  0  0  0
    5.5064   22.6861   19.6497 C   0  0  0  0  0  0  0  0  0  0  0  0
    5.1405   20.3167   20.3279 C   0  0  0  0  0  0  0  0  0  0  0  0
    4.4853   19.9599   19.3588 O   0  0  0  0  0  0  0  0  0  0  0  0
    0.5172   13.3950   21.6292 O   0  0  0  0  0  0  0  0  0  0  0  0
   -0.2401   13.4436   22.7839 C   0  0  0  0  0  0  0  0  0  0  0  0
   -0.3780   14.6102   23.5341 C   0  0  0  0  0  0  0  0  0  0  0  0
   -1.2108   14.5761   24.6397 C   0  0  0  0  0  0  0  0  0  0  0  0
   -1.8994   13.4767   25.0288 N   0  0  0  0  0  0  0  0  0  0  0  0
   -1.7471   12.3648   24.2712 C   0  0  0  0  0  0  0  0  0  0  0  0
   -0.9364   12.2958   23.1477 C   0  0  0  0  0  0  0  0  0  0  0  0
  1  2  1  0  0  0
  2  3  1  0  0  0
  3  4  2  0  0  0
  4  8  1  0  0  0
  8  9  1  0  0  0
  9 10  2  0  0  0
  9 12  1  0  0  0
 12 13  1  0  0  0
 13 14  1  0  0  0
 14 15  1  0  0  0
 15 16  1  0  0  0
 15 17  1  0  0  0
 17 18  2  0  0  0
  4  5  1  0  0  0
  5  6  2  0  0  0
  6  7  1  0  0  0
  7 19  1  0  0  0
 19 20  1  0  0  0
 20 21  2  0  0  0
 21 22  1  0  0  0
 22 23  2  0  0  0
 23 24  1  0  0  0
 24 25  2  0  0  0
  7  2  2  0  0  0
 25 20  1  0  0  0
 17 12  1  0  0  0
  8 11  1  0  0  0
M  END
> <minimizedAffinity>
-6.79881

$$$$
OCNT-2310878


 25 26  0  0  0  0  0  0  0  0999 V2000
    3.8403   20.9194   20.1119 C   0  0  0  0  0  0  0  0  0  0  0  0
    3.2241   21.9594   19.9222 O   0  0  0  0  0  0  0  0  0  0  0  0
    3.3713   19.6429   19.8349 N   0  0  0  0  0  0  0  0  0  0  0  0
    4.0382   18.9067   20.0654 H   0  0  0  0  0  0  0  0  0  0  0  0
    2.1330   19.2567   19.2941 C   0  0  0  0  0  0  0  0  0  0  0  0
    1.2681   20.1322   18.6380 C   0  0  0  0  0  0  0  0  0  0  0  0
    0.0531   19.6711   18.1275 C   0  0  0  0  0  0  0  0  0  0  0  0
   -0.2994   18.3298   18.2728 C   0  0  0  0  0  0  0  0  0  0  0  0
   -1.8177   17.8093   17.6218 Cl  0  0  0  0  0  0  0  0  0  0  0  0
    0.5553   17.4269   18.9297 C   0  0  0  0  0  0  0  0  0  0  0  0
    1.7687   17.9072   19.4355 C   0  0  0  0  0  0  0  0  0  0  0  0
    0.1425   16.0764   19.0475 N   0  0  0  0  0  0  0  0  0  0  0  0
    0.5681   15.1303   19.9580 C   0  0  0  0  0  0  0  0  0  0  0  0
   -0.1062   13.7960   19.7564 C   0  0  0  0  0  0  0  0  0  0  0  0
    1.4108   15.2806   20.8353 O   0  0  0  0  0  0  0  0  0  0  0  0
   -0.5473   15.7866   18.3608 H   0  0  0  0  0  0  0  0  0  0  0  0
    5.6511   19.9574   21.6523 C   0  0  0  0  0  0  0  0  0  0  0  0
    6.9726   20.0520   22.0984 C   0  0  0  0  0  0  0  0  0  0  0  0
    7.8186   21.0405   21.5942 C   0  0  0  0  0  0  0  0  0  0  0  0
    7.3233   21.9189   20.6492 C   0  0  0  0  0  0  0  0  0  0  0  0
    6.0603   21.8735   20.1844 N   0  0  0  0  0  0  0  0  0  0  0  0
    5.2412   20.8922   20.6932 C   0  0  0  0  0  0  0  0  0  0  0  0
    4.7599   19.0239   22.0917 O   0  0  0  0  0  0  0  0  0  0  0  0
    4.6222   16.7259   21.4871 C   0  0  0  0  0  0  0  0  0  0  0  0
    5.2410   17.7300   22.4428 C   0  0  0  0  0  0  0  0  0  0  0  0
 24 25  1  0  0  0
 25 23  1  0  0  0
 23 17  1  0  0  0
 17 18  1  0  0  0
 18 19  2  0  0  0
 19 20  1  0  0  0
 20 21  2  0  0  0
 21 22  1  0  0  0
 22  1  1  0  0  0
  1  2  2  0  0  0
  1  3  1  0  0  0
  3  5  1  0  0  0
  5  6  1  0  0  0
  6  7  2  0  0  0
  7  8  1  0  0  0
  8  9  1  0  0  0
  8 10  2  0  0  0
 10 12  1  0  0  0
 12 13  1  0  0  0
 13 14  1  0  0  0
 13 15  2  0  0  0
 10 11  1  0  0  0
 22 17  2  0  0  0
 11  5  2  0  0  0
  3  4  1  0  0  0
 12 16  1  0  0  0
M  END
> <minimizedAffinity>
-8.71216

$$$$
OCNT-2310880


 27 29  0  0  0  0  0  0  0  0999 V2000
    2.8084   18.5069   20.4903 N   0  0  0  0  0  0  0  0  0  0  0  0
    1.8930   19.2488   19.7709 C   0  0  0  0  0  0  0  0  0  0  0  0
    2.0324   20.4099   19.3982 O   0  0  0  0  0  0  0  0  0  0  0  0
    2.5276   17.5587   20.7378 H   0  0  0  0  0  0  0  0  0  0  0  0
    0.6555   18.4294   19.3832 C   0  0  0  0  0  0  0  0  0  0  0  0
    0.7436   16.9937   19.9179 C   0  0  0  0  0  0  0  0  0  0  0  0
    0.0874   16.2816   18.7977 C   0  0  0  0  0  0  0  0  0  0  0  0
   -0.3344   14.9657   18.7155 C   0  0  0  0  0  0  0  0  0  0  0  0
   -0.8780   14.5283   17.5052 C   0  0  0  0  0  0  0  0  0  0  0  0
   -1.4210   12.9010   17.3579 Cl  0  0  0  0  0  0  0  0  0  0  0  0
   -0.9822   15.3930   16.4033 C   0  0  0  0  0  0  0  0  0  0  0  0
   -0.5420   16.7157   16.5022 C   0  0  0  0  0  0  0  0  0  0  0  0
   -0.0190   17.1326   17.7093 C   0  0  0  0  0  0  0  0  0  0  0  0
    0.4566   18.3939   17.9472 O   0  0  0  0  0  0  0  0  0  0  0  0
    6.0418   20.2988   21.0577 C   0  0  0  0  0  0  0  0  0  0  0  0
    6.5631   19.5261   22.1015 C   0  0  0  0  0  0  0  0  0  0  0  0
    5.8434   18.4337   22.5923 C   0  0  0  0  0  0  0  0  0  0  0  0
    4.5990   18.1115   22.0438 C   0  0  0  0  0  0  0  0  0  0  0  0
    4.0677   18.8949   20.9941 C   0  0  0  0  0  0  0  0  0  0  0  0
    4.7891   19.9900   20.5131 C   0  0  0  0  0  0  0  0  0  0  0  0
    8.9575   22.3626   19.8372 C   0  0  0  0  0  0  0  0  0  0  0  0
    8.1568   21.3371   20.4576 N   0  0  0  0  0  0  0  0  0  0  0  0
    6.7840   21.4736   20.5265 C   0  0  0  0  0  0  0  0  0  0  0  0
    6.1814   22.4733   20.1571 O   0  0  0  0  0  0  0  0  0  0  0  0
    8.5506   20.4084   20.5234 H   0  0  0  0  0  0  0  0  0  0  0  0
    3.8121   17.0576   22.4485 O   0  0  0  0  0  0  0  0  0  0  0  0
    3.9835   15.8192   21.7702 C   0  0  0  0  0  0  0  0  0  0  0  0
 21 22  1  0  0  0
 22 23  1  0  0  0
 23 24  2  0  0  0
 23 15  1  0  0  0
 15 16  1  0  0  0
 16 17  2  0  0  0
 17 18  1  0  0  0
 18 26  1  0  0  0
 26 27  1  0  0  0
 18 19  2  0  0  0
 19  1  1  0  0  0
  1  2  1  0  0  0
  2  3  2  0  0  0
  2  5  1  0  0  0
  5  6  1  0  0  0
  6  7  1  0  0  0
  7  8  1  0  0  0
  8  9  2  0  0  0
  9 10  1  0  0  0
  9 11  1  0  0  0
 11 12  2  0  0  0
 12 13  1  0  0  0
 13 14  1  0  0  0
 19 20  1  0  0  0
 20 15  2  0  0  0
 14  5  1  0  0  0
 13  7  2  0  0  0
 22 25  1  0  0  0
  1  4  1  0  0  0
M  END
> <minimizedAffinity>
-6.61473

$$$$
OCNT-2310884


 23 25  0  0  0  0  0  0  0  0999 V2000
    3.8739   16.6223   21.4843 C   0  0  0  0  0  0  0  0  0  0  0  0
    4.5566   15.5658   21.8773 N   0  0  0  0  0  0  0  0  0  0  0  0
    3.6467   14.5359   21.9953 N   0  0  0  0  0  0  0  0  0  0  0  0
    2.4714   15.0285   21.6638 C   0  0  0  0  0  0  0  0  0  0  0  0
    2.5399   16.3540   21.3261 O   0  0  0  0  0  0  0  0  0  0  0  0
    5.7328   21.9969   20.4318 C   0  0  0  0  0  0  0  0  0  0  0  0
    5.2253   20.6135   20.7135 C   0  0  0  0  0  0  0  0  0  0  0  0
    5.6933   19.8985   21.8204 C   0  0  0  0  0  0  0  0  0  0  0  0
    5.2432   18.5973   22.0649 C   0  0  0  0  0  0  0  0  0  0  0  0
    4.3249   17.9793   21.2040 C   0  0  0  0  0  0  0  0  0  0  0  0
    3.8709   18.6967   20.0880 C   0  0  0  0  0  0  0  0  0  0  0  0
    4.3205   19.9985   19.8422 C   0  0  0  0  0  0  0  0  0  0  0  0
    0.9779   14.1423   21.6375 S   0  0  0  0  0  0  0  0  0  0  0  0
    0.3632   14.5102   19.9618 C   0  0  0  0  0  0  0  0  0  0  0  0
   -0.4438   15.8191   19.9224 C   0  0  0  0  0  0  0  0  0  0  0  0
    0.0605   16.7824   18.9150 N   0  0  0  0  0  0  0  0  0  0  0  0
   -0.5591   16.5682   17.5958 C   0  0  0  0  0  0  0  0  0  0  0  0
    0.0162   17.5283   16.5624 C   0  0  0  0  0  0  0  0  0  0  0  0
   -0.1465   18.9556   17.0311 C   0  0  0  0  0  0  0  0  0  0  0  0
    0.4603   19.7954   16.1547 F   0  0  0  0  0  0  0  0  0  0  0  0
   -1.4664   19.2843   17.0181 F   0  0  0  0  0  0  0  0  0  0  0  0
    0.4104   19.1777   18.4178 C   0  0  0  0  0  0  0  0  0  0  0  0
   -0.1797   18.1601   19.3839 C   0  0  0  0  0  0  0  0  0  0  0  0
  6  7  1  0  0  0
  7  8  1  0  0  0
  8  9  2  0  0  0
  9 10  1  0  0  0
 10  1  1  0  0  0
  1  2  2  0  0  0
  2  3  1  0  0  0
  3  4  2  0  0  0
  4 13  1  0  0  0
 13 14  1  0  0  0
 14 15  1  0  0  0
 15 16  1  0  0  0
 16 17  1  0  0  0
 17 18  1  0  0  0
 18 19  1  0  0  0
 19 20  1  0  0  0
 19 21  1  0  0  0
 19 22  1  0  0  0
 22 23  1  0  0  0
  4  5  1  0  0  0
 10 11  2  0  0  0
 11 12  1  0  0  0
 12  7  2  0  0  0
  5  1  1  0  0  0
 23 16  1  0  0  0
M  END
> <minimizedAffinity>
-9.69786

$$$$
OCNT-2310888


 21 23  0  0  0  0  0  0  0  0999 V2000
    2.2253   18.8405   19.4410 C   0  0  0  0  0  0  0  0  0  0  0  0
    2.0718   20.1310   19.1031 N   0  0  0  0  0  0  0  0  0  0  0  0
    3.1284   20.7729   19.7367 O   0  0  0  0  0  0  0  0  0  0  0  0
    3.8271   19.8120   20.4124 C   0  0  0  0  0  0  0  0  0  0  0  0
    3.3185   18.6112   20.2493 N   0  0  0  0  0  0  0  0  0  0  0  0
   -1.3061   14.6136   17.6518 C   0  0  0  0  0  0  0  0  0  0  0  0
   -0.3844   15.6963   18.1383 C   0  0  0  0  0  0  0  0  0  0  0  0
   -0.2048   16.8502   17.3631 C   0  0  0  0  0  0  0  0  0  0  0  0
    0.6472   17.8728   17.7921 C   0  0  0  0  0  0  0  0  0  0  0  0
    1.3397   17.7667   19.0054 C   0  0  0  0  0  0  0  0  0  0  0  0
    1.1624   16.6142   19.7821 C   0  0  0  0  0  0  0  0  0  0  0  0
    0.3098   15.5913   19.3529 C   0  0  0  0  0  0  0  0  0  0  0  0
    0.1441   14.2020   20.3676 Cl  0  0  0  0  0  0  0  0  0  0  0  0
    5.0449   20.2655   21.1617 C   0  0  0  0  0  0  0  0  0  0  0  0
    6.1869   20.5515   20.1585 C   0  0  0  0  0  0  0  0  0  0  0  0
    7.0809   21.6985   20.6164 C   0  0  0  0  0  0  0  0  0  0  0  0
    7.1866   21.6899   22.0312 O   0  0  0  0  0  0  0  0  0  0  0  0
    5.9797   22.0720   22.6862 C   0  0  0  0  0  0  0  0  0  0  0  0
    4.7342   21.5297   21.9871 C   0  0  0  0  0  0  0  0  0  0  0  0
    5.4422   19.1762   22.0890 C   0  0  0  0  0  0  0  0  0  0  0  0
    5.7248   18.3173   22.8184 N   0  0  0  0  0  0  0  0  0  0  0  0
  6  7  1  0  0  0
  7  8  1  0  0  0
  8  9  2  0  0  0
  9 10  1  0  0  0
 10  1  1  0  0  0
  1  2  2  0  0  0
  2  3  1  0  0  0
  3  4  1  0  0  0
  4 14  1  0  0  0
 14 20  1  0  0  0
 20 21  3  0  0  0
 14 15  1  0  0  0
 15 16  1  0  0  0
 16 17  1  0  0  0
 17 18  1  0  0  0
 18 19  1  0  0  0
  4  5  2  0  0  0
 10 11  2  0  0  0
 11 12  1  0  0  0
 12 13  1  0  0  0
 12  7  2  0  0  0
  5  1  1  0  0  0
 19 14  1  0  0  0
M  END
> <minimizedAffinity>
-8.72694

$$$$
OCNT-2310890


 26 28  0  0  0  0  0  0  0  0999 V2000
    3.8601   16.6960   20.3688 O   0  0  0  0  0  0  0  0  0  0  0  0
    3.7528   16.6880   21.5872 C   0  0  0  0  0  0  0  0  0  0  0  0
    2.9335   15.8020   22.2568 N   0  0  0  0  0  0  0  0  0  0  0  0
    4.4132   17.5094   22.4752 N   0  0  0  0  0  0  0  0  0  0  0  0
    2.5780   16.1125   23.1479 H   0  0  0  0  0  0  0  0  0  0  0  0
    4.3712   17.2214   23.4415 H   0  0  0  0  0  0  0  0  0  0  0  0
    5.2725   18.5856   22.1707 C   0  0  0  0  0  0  0  0  0  0  0  0
    4.7110   19.6889   21.5136 C   0  0  0  0  0  0  0  0  0  0  0  0
    5.5045   20.7879   21.1731 C   0  0  0  0  0  0  0  0  0  0  0  0
    4.7935   22.1334   20.3695 Cl  0  0  0  0  0  0  0  0  0  0  0  0
    6.8596   20.8033   21.4753 C   0  0  0  0  0  0  0  0  0  0  0  0
    7.4109   19.7057   22.1205 C   0  0  0  0  0  0  0  0  0  0  0  0
    8.7187   19.7078   22.4108 F   0  0  0  0  0  0  0  0  0  0  0  0
    6.6358   18.6010   22.4686 C   0  0  0  0  0  0  0  0  0  0  0  0
    2.0970   14.8718   21.5263 C   0  0  0  0  0  0  0  0  0  0  0  0
    1.2534   15.5761   20.5029 C   0  0  0  0  0  0  0  0  0  0  0  0
    0.3183   14.8877   19.7274 C   0  0  0  0  0  0  0  0  0  0  0  0
   -0.4363   15.5672   18.7700 C   0  0  0  0  0  0  0  0  0  0  0  0
   -0.2310   16.9340   18.6078 C   0  0  0  0  0  0  0  0  0  0  0  0
    0.6769   17.6243   19.3482 N   0  0  0  0  0  0  0  0  0  0  0  0
    1.3890   16.9376   20.2697 C   0  0  0  0  0  0  0  0  0  0  0  0
   -0.9752   17.6690   17.6429 N   0  0  0  0  0  0  0  0  0  0  0  0
   -0.4511   18.2957   16.5311 C   0  0  0  0  0  0  0  0  0  0  0  0
   -1.5150   18.8755   15.8847 C   0  0  0  0  0  0  0  0  0  0  0  0
   -2.6807   18.6305   16.5560 N   0  0  0  0  0  0  0  0  0  0  0  0
   -2.3294   17.9105   17.6004 C   0  0  0  0  0  0  0  0  0  0  0  0
  1  2  2  0  0  0
  2  3  1  0  0  0
  3 15  1  0  0  0
 15 16  1  0  0  0
 16 17  2  0  0  0
 17 18  1  0  0  0
 18 19  2  0  0  0
 19 22  1  0  0  0
 22 23  1  0  0  0
 23 24  2  0  0  0
 24 25  1  0  0  0
 25 26  2  0  0  0
 19 20  1  0  0  0
 20 21  2  0  0  0
  2  4  1  0  0  0
  4  7  1  0  0  0
  7  8  1  0  0  0
  8  9  2  0  0  0
  9 10  1  0  0  0
  9 11  1  0  0  0
 11 12  2  0  0  0
 12 13  1  0  0  0
 12 14  1  0  0  0
 21 16  1  0  0  0
 14  7  2  0  0  0
 26 22  1  0  0  0
  3  5  1  0  0  0
  4  6  1  0  0  0
M  END
> <minimizedAffinity>
-7.62714

$$$$
OCNT-2310900


 22 24  0  0  0  0  0  0  0  0999 V2000
    1.0769   19.1975   18.8472 S   0  0  0  0  0  0  0  0  0  0  0  0
    0.8462   19.7249   17.5207 O   0  0  0  0  0  0  0  0  0  0  0  0
    0.5121   19.8435   20.0141 O   0  0  0  0  0  0  0  0  0  0  0  0
   -0.9043   17.8066   16.7734 C   0  0  0  0  0  0  0  0  0  0  0  0
   -0.3094   16.9704   17.8734 C   0  0  0  0  0  0  0  0  0  0  0  0
   -0.6737   15.6156   17.9549 C   0  0  0  0  0  0  0  0  0  0  0  0
   -0.1781   14.7951   18.9719 C   0  0  0  0  0  0  0  0  0  0  0  0
    0.6865   15.3156   19.9363 C   0  0  0  0  0  0  0  0  0  0  0  0
    1.0567   16.6611   19.8781 C   0  0  0  0  0  0  0  0  0  0  0  0
    0.5675   17.4842   18.8494 C   0  0  0  0  0  0  0  0  0  0  0  0
    1.1914   14.4720   20.9799 C   0  0  0  0  0  0  0  0  0  0  0  0
    1.6057   13.7857   21.8188 N   0  0  0  0  0  0  0  0  0  0  0  0
    2.7570   19.0983   19.1087 N   0  0  0  0  0  0  0  0  0  0  0  0
    3.2255   17.9500   19.9504 C   0  0  0  0  0  0  0  0  0  0  0  0
    3.6829   18.4305   21.3290 C   0  0  0  0  0  0  0  0  0  0  0  0
    4.7975   19.3285   21.2560 O   0  0  0  0  0  0  0  0  0  0  0  0
    4.7819   20.1809   20.0947 C   0  0  0  0  0  0  0  0  0  0  0  0
    3.3578   20.4017   19.5470 C   0  0  0  0  0  0  0  0  0  0  0  0
    5.4003   21.5220   20.5032 C   0  0  0  0  0  0  0  0  0  0  0  0
    6.9518   21.5938   20.5698 C   0  0  0  0  0  0  0  0  0  0  0  0
    6.8501   21.2891   22.0756 C   0  0  0  0  0  0  0  0  0  0  0  0
    5.4104   21.8320   22.0264 C   0  0  0  0  0  0  0  0  0  0  0  0
  4  5  1  0  0  0
  5  6  1  0  0  0
  6  7  2  0  0  0
  7  8  1  0  0  0
  8 11  1  0  0  0
 11 12  3  0  0  0
  8  9  2  0  0  0
  9 10  1  0  0  0
 10  1  1  0  0  0
  1  2  2  0  0  0
  1  3  2  0  0  0
  1 13  1  0  0  0
 13 14  1  0  0  0
 14 15  1  0  0  0
 15 16  1  0  0  0
 16 17  1  0  0  0
 17 19  1  0  0  0
 19 20  1  0  0  0
 20 21  1  0  0  0
 21 22  1  0  0  0
 17 18  1  0  0  0
 10  5  2  0  0  0
 18 13  1  0  0  0
 22 19  1  0  0  0
M  END
> <minimizedAffinity>
-10.99997

$$$$
OCNT-2310905


 27 30  0  0  0  0  0  0  0  0999 V2000
    2.2121   16.3826   20.8802 C   0  0  0  0  0  0  0  0  0  0  0  0
    2.4892   15.9018   21.9743 O   0  0  0  0  0  0  0  0  0  0  0  0
    2.8568   17.4875   20.3725 N   0  0  0  0  0  0  0  0  0  0  0  0
    2.4747   17.9027   19.5284 H   0  0  0  0  0  0  0  0  0  0  0  0
    0.3574   19.7329   17.5011 C   0  0  0  0  0  0  0  0  0  0  0  0
   -0.2666   18.4611   18.0617 C   0  0  0  0  0  0  0  0  0  0  0  0
    0.7700   17.7340   18.7213 O   0  0  0  0  0  0  0  0  0  0  0  0
    0.4439   16.4313   19.0178 C   0  0  0  0  0  0  0  0  0  0  0  0
    1.1420   15.7619   20.0376 C   0  0  0  0  0  0  0  0  0  0  0  0
    0.8241   14.4197   20.3134 C   0  0  0  0  0  0  0  0  0  0  0  0
   -0.1459   13.7436   19.5715 C   0  0  0  0  0  0  0  0  0  0  0  0
   -0.8173   14.4009   18.5445 C   0  0  0  0  0  0  0  0  0  0  0  0
   -0.5285   15.7391   18.2759 C   0  0  0  0  0  0  0  0  0  0  0  0
   -1.1971   16.3723   17.2253 N   0  0  0  0  0  0  0  0  0  0  0  0
   -1.0331   17.7071   16.9677 C   0  0  0  0  0  0  0  0  0  0  0  0
   -1.5460   18.2346   15.9855 O   0  0  0  0  0  0  0  0  0  0  0  0
   -1.7890   15.8524   16.5905 H   0  0  0  0  0  0  0  0  0  0  0  0
    3.8208   18.2518   21.1580 C   0  0  0  0  0  0  0  0  0  0  0  0
    5.0660   17.4247   21.4830 C   0  0  0  0  0  0  0  0  0  0  0  0
    5.9786   18.1104   22.3437 O   0  0  0  0  0  0  0  0  0  0  0  0
    6.2538   19.3984   21.9700 C   0  0  0  0  0  0  0  0  0  0  0  0
    7.3661   19.9844   22.5748 C   0  0  0  0  0  0  0  0  0  0  0  0
    7.7253   21.2950   22.2622 C   0  0  0  0  0  0  0  0  0  0  0  0
    6.9675   22.0230   21.3472 C   0  0  0  0  0  0  0  0  0  0  0  0
    5.8466   21.4433   20.7512 C   0  0  0  0  0  0  0  0  0  0  0  0
    5.4734   20.1293   21.0679 C   0  0  0  0  0  0  0  0  0  0  0  0
    4.2615   19.5201   20.4217 C   0  0  0  0  0  0  0  0  0  0  0  0
  5  6  1  0  0  0
  6  7  1  0  0  0
  7  8  1  0  0  0
  8  9  2  0  0  0
  9  1  1  0  0  0
  1  2  2  0  0  0
  1  3  1  0  0  0
  3 18  1  0  0  0
 18 19  1  0  0  0
 19 20  1  0  0  0
 20 21  1  0  0  0
 21 22  2  0  0  0
 22 23  1  0  0  0
 23 24  2  0  0  0
 24 25  1  0  0  0
 25 26  2  0  0  0
 26 27  1  0  0  0
  9 10  1  0  0  0
 10 11  2  0  0  0
 11 12  1  0  0  0
 12 13  2  0  0  0
 13 14  1  0  0  0
 14 15  1  0  0  0
 15 16  2  0  0  0
 15  6  1  0  0  0
 13  8  1  0  0  0
 27 18  1  0  0  0
 26 21  1  0  0  0
  3  4  1  0  0  0
 14 17  1  0  0  0
M  END
> <minimizedAffinity>
-9.75214

$$$$
OCNT-2310913


 28 31  0  0  0  0  0  0  0  0999 V2000
    0.4950   18.0249   18.9023 O   0  0  0  0  0  0  0  0  0  0  0  0
    1.5087   17.9327   19.5835 C   0  0  0  0  0  0  0  0  0  0  0  0
    1.8877   16.8621   20.3663 N   0  0  0  0  0  0  0  0  0  0  0  0
    2.6832   16.9447   20.9798 H   0  0  0  0  0  0  0  0  0  0  0  0
    2.4322   19.1023   19.6374 C   0  0  0  0  0  0  0  0  0  0  0  0
    1.9720   20.4179   19.5061 C   0  0  0  0  0  0  0  0  0  0  0  0
    2.8758   21.4836   19.5553 C   0  0  0  0  0  0  0  0  0  0  0  0
    4.2470   21.2524   19.7498 C   0  0  0  0  0  0  0  0  0  0  0  0
    4.6962   19.9324   19.9023 C   0  0  0  0  0  0  0  0  0  0  0  0
    3.7949   18.8662   19.8509 C   0  0  0  0  0  0  0  0  0  0  0  0
    5.2249   22.4012   19.8039 C   0  0  0  0  0  0  0  0  0  0  0  0
    6.3754   22.0934   20.6333 N   0  0  0  0  0  0  0  0  0  0  0  0
    6.3589   21.7783   21.9644 C   0  0  0  0  0  0  0  0  0  0  0  0
    7.6724   21.5245   22.2830 C   0  0  0  0  0  0  0  0  0  0  0  0
    8.4768   21.6650   21.1818 N   0  0  0  0  0  0  0  0  0  0  0  0
    7.6685   22.0032   20.2030 C   0  0  0  0  0  0  0  0  0  0  0  0
    1.1924   15.6778   20.4315 C   0  0  0  0  0  0  0  0  0  0  0  0
    1.2560   14.7943   21.4820 C   0  0  0  0  0  0  0  0  0  0  0  0
    0.4355   13.7728   21.0957 N   0  0  0  0  0  0  0  0  0  0  0  0
   -0.1181   14.0187   19.8954 N   0  0  0  0  0  0  0  0  0  0  0  0
    0.3489   15.1892   19.4767 N   0  0  0  0  0  0  0  0  0  0  0  0
    0.0889   12.5688   21.8285 C   0  0  0  0  0  0  0  0  0  0  0  0
   -0.7294   12.8721   23.0593 C   0  0  0  0  0  0  0  0  0  0  0  0
   -1.5854   11.9015   23.6025 C   0  0  0  0  0  0  0  0  0  0  0  0
   -2.3400   12.1819   24.7421 C   0  0  0  0  0  0  0  0  0  0  0  0
   -2.2496   13.4328   25.3492 C   0  0  0  0  0  0  0  0  0  0  0  0
   -1.4048   14.4056   24.8178 C   0  0  0  0  0  0  0  0  0  0  0  0
   -0.6486   14.1288   23.6780 C   0  0  0  0  0  0  0  0  0  0  0  0
  1  2  2  0  0  0
  2  3  1  0  0  0
  3 17  1  0  0  0
 17 18  2  0  0  0
 18 19  1  0  0  0
 19 22  1  0  0  0
 22 23  1  0  0  0
 23 24  2  0  0  0
 24 25  1  0  0  0
 25 26  2  0  0  0
 26 27  1  0  0  0
 27 28  2  0  0  0
 19 20  1  0  0  0
 20 21  2  0  0  0
  2  5  1  0  0  0
  5  6  1  0  0  0
  6  7  2  0  0  0
  7  8  1  0  0  0
  8 11  1  0  0  0
 11 12  1  0  0  0
 12 13  1  0  0  0
 13 14  2  0  0  0
 14 15  1  0  0  0
 15 16  2  0  0  0
  8  9  2  0  0  0
  9 10  1  0  0  0
 21 17  1  0  0  0
 10  5  2  0  0  0
 28 23  1  0  0  0
 16 12  1  0  0  0
  3  4  1  0  0  0
M  END
> <minimizedAffinity>
-1.95491

$$$$
OCNT-2310919


 23 25  0  0  0  0  0  0  0  0999 V2000
    3.9681   14.3504   22.1098 C   0  0  0  0  0  0  0  0  0  0  0  0
    3.8966   15.7669   21.6752 C   0  0  0  0  0  0  0  0  0  0  0  0
    4.8848   16.7195   21.8070 C   0  0  0  0  0  0  0  0  0  0  0  0
    4.3978   17.9123   21.3082 N   0  0  0  0  0  0  0  0  0  0  0  0
    3.1402   17.7505   20.8567 N   0  0  0  0  0  0  0  0  0  0  0  0
    2.8155   16.4652   21.0618 C   0  0  0  0  0  0  0  0  0  0  0  0
    5.0661   19.1765   21.2861 C   0  0  0  0  0  0  0  0  0  0  0  0
    6.2116   19.3457   22.0951 C   0  0  0  0  0  0  0  0  0  0  0  0
    6.8965   20.5638   22.1388 C   0  0  0  0  0  0  0  0  0  0  0  0
    6.4556   21.6364   21.3770 C   0  0  0  0  0  0  0  0  0  0  0  0
    5.3322   21.4873   20.5671 C   0  0  0  0  0  0  0  0  0  0  0  0
    4.6327   20.2689   20.5096 C   0  0  0  0  0  0  0  0  0  0  0  0
    3.3192   20.2531   19.3814 Cl  0  0  0  0  0  0  0  0  0  0  0  0
    1.4872   15.9554   20.6665 C   0  0  0  0  0  0  0  0  0  0  0  0
    0.8632   15.1099   21.3036 O   0  0  0  0  0  0  0  0  0  0  0  0
    0.9731   16.5212   19.5217 N   0  0  0  0  0  0  0  0  0  0  0  0
    1.3835   17.3737   19.1601 H   0  0  0  0  0  0  0  0  0  0  0  0
   -0.3780   16.2308   19.1002 C   0  0  0  0  0  0  0  0  0  0  0  0
   -0.8176   17.2841   18.1267 C   0  0  0  0  0  0  0  0  0  0  0  0
   -2.0773   17.5549   17.8295 N   0  0  0  0  0  0  0  0  0  0  0  0
   -2.1231   18.5694   16.8933 C   0  0  0  0  0  0  0  0  0  0  0  0
   -0.9022   19.0601   16.4855 C   0  0  0  0  0  0  0  0  0  0  0  0
    0.3570   18.2277   17.2956 S   0  0  0  0  0  0  0  0  0  0  0  0
  1  2  1  0  0  0
  2  3  2  0  0  0
  3  4  1  0  0  0
  4  7  1  0  0  0
  7  8  2  0  0  0
  8  9  1  0  0  0
  9 10  2  0  0  0
 10 11  1  0  0  0
 11 12  2  0  0  0
 12 13  1  0  0  0
  4  5  1  0  0  0
  5  6  2  0  0  0
  6 14  1  0  0  0
 14 15  2  0  0  0
 14 16  1  0  0  0
 16 18  1  0  0  0
 18 19  1  0  0  0
 19 20  2  0  0  0
 20 21  1  0  0  0
 21 22  2  0  0  0
 22 23  1  0  0  0
  6  2  1  0  0  0
 23 19  1  0  0  0
 12  7  1  0  0  0
 16 17  1  0  0  0
M  END
> <minimizedAffinity>
-9.48376

$$$$
OCNT-2310923


 23 25  0  0  0  0  0  0  0  0999 V2000
    1.3183   18.6290   18.7728 C   0  0  0  0  0  0  0  0  0  0  0  0
    0.9138   19.7133   18.3684 O   0  0  0  0  0  0  0  0  0  0  0  0
    2.5104   18.4202   19.4542 N   0  0  0  0  0  0  0  0  0  0  0  0
    2.7857   17.4593   19.5988 H   0  0  0  0  0  0  0  0  0  0  0  0
    3.4418   19.3909   19.8788 C   0  0  0  0  0  0  0  0  0  0  0  0
    3.4083   20.7305   19.4919 C   0  0  0  0  0  0  0  0  0  0  0  0
    4.3653   21.6297   19.9736 C   0  0  0  0  0  0  0  0  0  0  0  0
    5.3584   21.2015   20.8504 C   0  0  0  0  0  0  0  0  0  0  0  0
    6.2512   22.1533   21.2630 O   0  0  0  0  0  0  0  0  0  0  0  0
    7.0454   21.7798   22.3922 C   0  0  0  0  0  0  0  0  0  0  0  0
    7.6335   20.3874   22.2391 C   0  0  0  0  0  0  0  0  0  0  0  0
    6.4971   19.3784   22.1657 C   0  0  0  0  0  0  0  0  0  0  0  0
    5.4228   19.8600   21.2334 C   0  0  0  0  0  0  0  0  0  0  0  0
    4.4518   18.9653   20.7547 C   0  0  0  0  0  0  0  0  0  0  0  0
   -0.1197   15.3149   19.0401 C   0  0  0  0  0  0  0  0  0  0  0  0
    0.6219   16.3242   19.4281 N   0  0  0  0  0  0  0  0  0  0  0  0
    0.5455   17.3938   18.5372 C   0  0  0  0  0  0  0  0  0  0  0  0
   -0.2768   17.1488   17.4512 C   0  0  0  0  0  0  0  0  0  0  0  0
   -0.9705   15.5892   17.5677 S   0  0  0  0  0  0  0  0  0  0  0  0
   -0.1965   14.1889   19.7865 N   0  0  0  0  0  0  0  0  0  0  0  0
   -0.9772   13.5942   19.5210 H   0  0  0  0  0  0  0  0  0  0  0  0
    1.6055   13.8687   21.3979 C   0  0  0  0  0  0  0  0  0  0  0  0
    0.1268   14.1567   21.1993 C   0  0  0  0  0  0  0  0  0  0  0  0
 22 23  1  0  0  0
 23 20  1  0  0  0
 20 15  1  0  0  0
 15 16  2  0  0  0
 16 17  1  0  0  0
 17  1  1  0  0  0
  1  2  2  0  0  0
  1  3  1  0  0  0
  3  5  1  0  0  0
  5  6  1  0  0  0
  6  7  2  0  0  0
  7  8  1  0  0  0
  8  9  1  0  0  0
  9 10  1  0  0  0
 10 11  1  0  0  0
 11 12  1  0  0  0
 12 13  1  0  0  0
 13 14  1  0  0  0
 17 18  2  0  0  0
 18 19  1  0  0  0
 19 15  1  0  0  0
 14  5  2  0  0  0
 13  8  2  0  0  0
 20 21  1  0  0  0
  3  4  1  0  0  0
M  END
> <minimizedAffinity>
-8.10513

$$$$
OCNT-2310932


 26 27  0  0  0  0  0  0  0  0999 V2000
    1.8535   18.9710   19.5307 C   0  0  0  0  0  0  0  0  0  0  0  0
    1.8183   20.1941   19.5141 O   0  0  0  0  0  0  0  0  0  0  0  0
    2.8403   18.1886   20.1032 N   0  0  0  0  0  0  0  0  0  0  0  0
    2.6795   17.1900   20.1423 H   0  0  0  0  0  0  0  0  0  0  0  0
   -0.4201   16.0970   18.6128 C   0  0  0  0  0  0  0  0  0  0  0  0
   -1.3634   16.7294   17.8037 C   0  0  0  0  0  0  0  0  0  0  0  0
   -1.2639   18.1021   17.5661 C   0  0  0  0  0  0  0  0  0  0  0  0
   -2.4407   18.8813   16.5791 Cl  0  0  0  0  0  0  0  0  0  0  0  0
   -0.2284   18.8551   18.1163 C   0  0  0  0  0  0  0  0  0  0  0  0
    0.7283   18.2194   18.9118 C   0  0  0  0  0  0  0  0  0  0  0  0
    0.6205   16.8469   19.1682 C   0  0  0  0  0  0  0  0  0  0  0  0
    0.2979   14.3962   20.1166 C   0  0  0  0  0  0  0  0  0  0  0  0
   -0.3981   14.7683   18.9329 O   0  0  0  0  0  0  0  0  0  0  0  0
    4.0134   18.6540   20.7373 C   0  0  0  0  0  0  0  0  0  0  0  0
    4.6698   18.0121   21.7847 C   0  0  0  0  0  0  0  0  0  0  0  0
    5.8007   18.4782   22.3781 N   0  0  0  0  0  0  0  0  0  0  0  0
    6.3220   19.6352   21.9055 C   0  0  0  0  0  0  0  0  0  0  0  0
    5.7301   20.3542   20.8758 C   0  0  0  0  0  0  0  0  0  0  0  0
    4.5625   19.8543   20.2841 C   0  0  0  0  0  0  0  0  0  0  0  0
    6.3168   21.6092   20.3753 C   0  0  0  0  0  0  0  0  0  0  0  0
    7.6858   21.6610   20.3528 N   0  0  0  0  0  0  0  0  0  0  0  0
    5.6361   22.5607   20.0243 O   0  0  0  0  0  0  0  0  0  0  0  0
    8.0805   22.4662   19.8810 H   0  0  0  0  0  0  0  0  0  0  0  0
    8.2436   20.8182   20.3717 H   0  0  0  0  0  0  0  0  0  0  0  0
    7.4347   20.1603   22.5262 O   0  0  0  0  0  0  0  0  0  0  0  0
    7.1259   21.1288   23.5224 C   0  0  0  0  0  0  0  0  0  0  0  0
 12 13  1  0  0  0
 13  5  1  0  0  0
  5  6  1  0  0  0
  6  7  2  0  0  0
  7  8  1  0  0  0
  7  9  1  0  0  0
  9 10  2  0  0  0
 10  1  1  0  0  0
  1  2  2  0  0  0
  1  3  1  0  0  0
  3 14  1  0  0  0
 14 15  1  0  0  0
 15 16  2  0  0  0
 16 17  1  0  0  0
 17 25  1  0  0  0
 25 26  1  0  0  0
 17 18  2  0  0  0
 18 20  1  0  0  0
 20 21  1  0  0  0
 20 22  2  0  0  0
 18 19  1  0  0  0
 10 11  1  0  0  0
 11  5  2  0  0  0
 19 14  2  0  0  0
  3  4  1  0  0  0
 21 23  1  0  0  0
 21 24  1  0  0  0
M  END
> <minimizedAffinity>
-8.20949

$$$$
OCNT-2310937


 26 28  0  0  0  0  0  0  0  0999 V2000
   -0.7764   16.8348   18.3839 C   0  0  0  0  0  0  0  0  0  0  0  0
   -1.1432   16.0821   17.2685 C   0  0  0  0  0  0  0  0  0  0  0  0
   -0.9214   14.7040   17.2559 C   0  0  0  0  0  0  0  0  0  0  0  0
   -0.3364   14.0789   18.3562 C   0  0  0  0  0  0  0  0  0  0  0  0
    0.0317   14.8207   19.4792 C   0  0  0  0  0  0  0  0  0  0  0  0
   -0.1925   16.1982   19.4879 C   0  0  0  0  0  0  0  0  0  0  0  0
   -0.9474   18.1846   18.5383 O   0  0  0  0  0  0  0  0  0  0  0  0
   -0.0924   18.8665   19.4497 C   0  0  0  0  0  0  0  0  0  0  0  0
    1.0283   21.0433   19.5034 N   0  0  0  0  0  0  0  0  0  0  0  0
    0.8295   19.8931   18.7925 C   0  0  0  0  0  0  0  0  0  0  0  0
    1.3962   19.7031   17.7214 O   0  0  0  0  0  0  0  0  0  0  0  0
    1.5421   21.7818   19.0412 H   0  0  0  0  0  0  0  0  0  0  0  0
    0.3515   21.3065   20.2104 H   0  0  0  0  0  0  0  0  0  0  0  0
    0.5925   14.0865   20.4867 O   0  0  0  0  0  0  0  0  0  0  0  0
    0.8356   14.7590   21.7235 C   0  0  0  0  0  0  0  0  0  0  0  0
    2.2201   15.3331   21.6577 C   0  0  0  0  0  0  0  0  0  0  0  0
    2.4940   16.5916   21.3775 N   0  0  0  0  0  0  0  0  0  0  0  0
    3.8654   16.8107   21.4117 C   0  0  0  0  0  0  0  0  0  0  0  0
    4.6136   15.6918   21.7242 C   0  0  0  0  0  0  0  0  0  0  0  0
    3.5875   14.3462   22.0006 S   0  0  0  0  0  0  0  0  0  0  0  0
    4.4225   18.1299   21.1168 C   0  0  0  0  0  0  0  0  0  0  0  0
    5.4192   18.6568   21.9526 C   0  0  0  0  0  0  0  0  0  0  0  0
    5.9750   19.9145   21.7034 C   0  0  0  0  0  0  0  0  0  0  0  0
    5.5439   20.6617   20.6106 C   0  0  0  0  0  0  0  0  0  0  0  0
    4.5606   20.1510   19.7664 C   0  0  0  0  0  0  0  0  0  0  0  0
    4.0037   18.8923   20.0161 C   0  0  0  0  0  0  0  0  0  0  0  0
  9 10  1  0  0  0
 10 11  2  0  0  0
 10  8  1  0  0  0
  8  7  1  0  0  0
  7  1  1  0  0  0
  1  2  1  0  0  0
  2  3  2  0  0  0
  3  4  1  0  0  0
  4  5  2  0  0  0
  5 14  1  0  0  0
 14 15  1  0  0  0
 15 16  1  0  0  0
 16 17  2  0  0  0
 17 18  1  0  0  0
 18 21  1  0  0  0
 21 22  2  0  0  0
 22 23  1  0  0  0
 23 24  2  0  0  0
 24 25  1  0  0  0
 25 26  2  0  0  0
 18 19  2  0  0  0
 19 20  1  0  0  0
  5  6  1  0  0  0
  6  1  2  0  0  0
 20 16  1  0  0  0
 26 21  1  0  0  0
  9 12  1  0  0  0
  9 13  1  0  0  0
M  END
> <minimizedAffinity>
-8.56628

$$$$
OCNT-2310942


 22 25  0  0  0  0  0  0  0  0999 V2000
    0.6136   15.0059   20.1562 C   0  0  0  0  0  0  0  0  0  0  0  0
   -0.1768   14.5087   19.1188 C   0  0  0  0  0  0  0  0  0  0  0  0
   -0.5746   15.3428   18.0684 C   0  0  0  0  0  0  0  0  0  0  0  0
   -0.2043   16.6792   18.0071 C   0  0  0  0  0  0  0  0  0  0  0  0
   -0.6321   17.4148   16.9765 N   0  0  0  0  0  0  0  0  0  0  0  0
   -0.2615   18.6994   16.9617 C   0  0  0  0  0  0  0  0  0  0  0  0
    0.5034   19.3132   17.8682 N   0  0  0  0  0  0  0  0  0  0  0  0
    0.9408   18.5590   18.8946 C   0  0  0  0  0  0  0  0  0  0  0  0
    0.5989   17.1978   19.0292 C   0  0  0  0  0  0  0  0  0  0  0  0
    0.9935   16.3535   20.1018 C   0  0  0  0  0  0  0  0  0  0  0  0
    1.7860   19.1700   19.8716 N   0  0  0  0  0  0  0  0  0  0  0  0
    2.3885   20.4769   19.6666 C   0  0  0  0  0  0  0  0  0  0  0  0
    3.7263   19.7764   19.4560 C   0  0  0  0  0  0  0  0  0  0  0  0
    3.0870   18.5854   20.1631 C   0  0  0  0  0  0  0  0  0  0  0  0
    4.8593   20.3734   20.1802 N   0  0  0  0  0  0  0  0  0  0  0  0
    5.2438   21.6893   20.1574 C   0  0  0  0  0  0  0  0  0  0  0  0
    6.3382   21.7853   20.9846 C   0  0  0  0  0  0  0  0  0  0  0  0
    6.5347   20.4796   21.4653 C   0  0  0  0  0  0  0  0  0  0  0  0
    5.6356   19.6194   20.9836 N   0  0  0  0  0  0  0  0  0  0  0  0
    2.4382   14.5483   21.8335 C   0  0  0  0  0  0  0  0  0  0  0  0
    1.0570   14.1365   21.3181 C   0  0  0  0  0  0  0  0  0  0  0  0
    0.0275   14.1445   22.4508 C   0  0  0  0  0  0  0  0  0  0  0  0
 20 21  1  0  0  0
 21 22  1  0  0  0
 21  1  1  0  0  0
  1  2  1  0  0  0
  2  3  2  0  0  0
  3  4  1  0  0  0
  4  5  2  0  0  0
  5  6  1  0  0  0
  6  7  2  0  0  0
  7  8  1  0  0  0
  8 11  1  0  0  0
 11 12  1  0  0  0
 12 13  1  0  0  0
 13 15  1  0  0  0
 15 16  1  0  0  0
 16 17  2  0  0  0
 17 18  1  0  0  0
 18 19  2  0  0  0
 13 14  1  0  0  0
  8  9  2  0  0  0
  9 10  1  0  0  0
 10  1  2  0  0  0
  9  4  1  0  0  0
 14 11  1  0  0  0
 19 15  1  0  0  0
M  END
> <minimizedAffinity>
-11.82484

$$$$
OCNT-2310944


 22 25  0  0  0  0  0  0  0  0999 V2000
    3.2908   20.7117   19.4840 N   0  0  0  0  0  0  0  0  0  0  0  0
    1.8098   20.6376   19.3710 C   0  0  0  0  0  0  0  0  0  0  0  0
    1.1947   19.2294   19.1497 C   0  0  0  0  0  0  0  0  0  0  0  0
    1.9624   18.2079   19.8809 N   0  0  0  0  0  0  0  0  0  0  0  0
    3.3925   18.1547   19.5063 C   0  0  0  0  0  0  0  0  0  0  0  0
    3.8777   19.4921   18.8890 C   0  0  0  0  0  0  0  0  0  0  0  0
    1.3575   16.9399   19.8935 C   0  0  0  0  0  0  0  0  0  0  0  0
    0.2880   16.6923   19.0879 N   0  0  0  0  0  0  0  0  0  0  0  0
   -0.2793   15.4703   19.0972 C   0  0  0  0  0  0  0  0  0  0  0  0
    0.0677   14.4003   19.8280 N   0  0  0  0  0  0  0  0  0  0  0  0
    1.1027   14.6814   20.6304 C   0  0  0  0  0  0  0  0  0  0  0  0
    1.7853   15.8850   20.7316 C   0  0  0  0  0  0  0  0  0  0  0  0
    2.7737   15.6962   21.7437 C   0  0  0  0  0  0  0  0  0  0  0  0
    2.6785   14.3970   22.1975 C   0  0  0  0  0  0  0  0  0  0  0  0
    1.6597   13.7923   21.5083 N   0  0  0  0  0  0  0  0  0  0  0  0
    1.3364   12.8429   21.6237 H   0  0  0  0  0  0  0  0  0  0  0  0
    3.6736   20.8890   20.8990 C   0  0  0  0  0  0  0  0  0  0  0  0
    7.4208   21.4867   21.0601 C   0  0  0  0  0  0  0  0  0  0  0  0
    7.4687   20.3214   21.7910 C   0  0  0  0  0  0  0  0  0  0  0  0
    5.9204   19.6261   21.9954 S   0  0  0  0  0  0  0  0  0  0  0  0
    5.1647   20.8924   21.1178 C   0  0  0  0  0  0  0  0  0  0  0  0
    6.0914   21.8141   20.6665 C   0  0  0  0  0  0  0  0  0  0  0  0
 18 19  2  0  0  0
 19 20  1  0  0  0
 20 21  1  0  0  0
 21 17  1  0  0  0
 17  1  1  0  0  0
  1  2  1  0  0  0
  2  3  1  0  0  0
  3  4  1  0  0  0
  4  7  1  0  0  0
  7  8  1  0  0  0
  8  9  2  0  0  0
  9 10  1  0  0  0
 10 11  2  0  0  0
 11 12  1  0  0  0
 12 13  1  0  0  0
 13 14  2  0  0  0
 14 15  1  0  0  0
  4  5  1  0  0  0
  5  6  1  0  0  0
 21 22  2  0  0  0
 22 18  1  0  0  0
  6  1  1  0  0  0
 12  7  2  0  0  0
 15 11  1  0  0  0
 15 16  1  0  0  0
M  END
> <minimizedAffinity>
-7.59551

$$$$
OCNT-2310948


 29 32  0  0  0  0  0  0  0  0999 V2000
    4.1315   17.7096   22.2844 C   0  0  0  0  0  0  0  0  0  0  0  0
    3.7823   17.7701   23.4581 O   0  0  0  0  0  0  0  0  0  0  0  0
    3.9209   16.6090   21.4836 N   0  0  0  0  0  0  0  0  0  0  0  0
    3.9123   16.7244   20.4783 H   0  0  0  0  0  0  0  0  0  0  0  0
    8.9951   22.5454   20.2527 O   0  0  0  0  0  0  0  0  0  0  0  0
    8.0219   21.8472   20.4710 C   0  0  0  0  0  0  0  0  0  0  0  0
    7.9886   20.6940   21.2693 N   0  0  0  0  0  0  0  0  0  0  0  0
    6.6915   20.1970   21.2553 C   0  0  0  0  0  0  0  0  0  0  0  0
    6.1487   19.0990   21.8729 C   0  0  0  0  0  0  0  0  0  0  0  0
    4.7817   18.8818   21.6533 C   0  0  0  0  0  0  0  0  0  0  0  0
    4.0744   19.7639   20.8148 C   0  0  0  0  0  0  0  0  0  0  0  0
    4.6107   20.8583   20.2044 N   0  0  0  0  0  0  0  0  0  0  0  0
    5.9099   21.0263   20.4563 C   0  0  0  0  0  0  0  0  0  0  0  0
    6.7277   22.0365   19.9792 N   0  0  0  0  0  0  0  0  0  0  0  0
    8.7905   20.3184   21.7498 H   0  0  0  0  0  0  0  0  0  0  0  0
    6.4350   22.7808   19.3708 H   0  0  0  0  0  0  0  0  0  0  0  0
    3.1083   15.5034   21.9577 C   0  0  0  0  0  0  0  0  0  0  0  0
    1.9160   15.2920   21.0561 C   0  0  0  0  0  0  0  0  0  0  0  0
    1.2778   14.0609   21.0067 C   0  0  0  0  0  0  0  0  0  0  0  0
    0.1706   13.9309   20.1844 C   0  0  0  0  0  0  0  0  0  0  0  0
   -0.2700   15.0349   19.4570 C   0  0  0  0  0  0  0  0  0  0  0  0
    0.3875   16.2600   19.5703 C   0  0  0  0  0  0  0  0  0  0  0  0
    1.4774   16.3770   20.3615 N   0  0  0  0  0  0  0  0  0  0  0  0
   -0.0327   17.3664   18.8424 N   0  0  0  0  0  0  0  0  0  0  0  0
   -0.0427   17.2187   17.3786 C   0  0  0  0  0  0  0  0  0  0  0  0
   -0.5872   18.5070   16.7427 C   0  0  0  0  0  0  0  0  0  0  0  0
    0.1933   19.6769   17.0386 O   0  0  0  0  0  0  0  0  0  0  0  0
    0.9731   19.5505   18.2355 C   0  0  0  0  0  0  0  0  0  0  0  0
    0.2928   18.7161   19.3348 C   0  0  0  0  0  0  0  0  0  0  0  0
  5  6  2  0  0  0
  6  7  1  0  0  0
  7  8  1  0  0  0
  8  9  1  0  0  0
  9 10  2  0  0  0
 10  1  1  0  0  0
  1  2  2  0  0  0
  1  3  1  0  0  0
  3 17  1  0  0  0
 17 18  1  0  0  0
 18 19  2  0  0  0
 19 20  1  0  0  0
 20 21  2  0  0  0
 21 22  1  0  0  0
 22 24  1  0  0  0
 24 25  1  0  0  0
 25 26  1  0  0  0
 26 27  1  0  0  0
 27 28  1  0  0  0
 28 29  1  0  0  0
 22 23  2  0  0  0
 10 11  1  0  0  0
 11 12  2  0  0  0
 12 13  1  0  0  0
 13 14  1  0  0  0
 14  6  1  0  0  0
 13  8  2  0  0  0
 23 18  1  0  0  0
 29 24  1  0  0  0
  7 15  1  0  0  0
  3  4  1  0  0  0
 14 16  1  0  0  0
M  END
> <minimizedAffinity>
-7.64144

$$$$
OCNT-2310953


 27 31  0  0  0  0  0  0  0  0999 V2000
    6.3239   21.3883   20.9419 C   0  0  0  0  0  0  0  0  0  0  0  0
    5.4012   22.2142   20.3064 C   0  0  0  0  0  0  0  0  0  0  0  0
    4.1769   21.7047   19.8833 C   0  0  0  0  0  0  0  0  0  0  0  0
    3.8581   20.3538   20.0934 C   0  0  0  0  0  0  0  0  0  0  0  0
    2.5238   19.8412   19.5944 C   0  0  0  0  0  0  0  0  0  0  0  0
    2.2572   18.4241   19.8159 N   0  0  0  0  0  0  0  0  0  0  0  0
    0.9436   18.0073   19.6100 C   0  0  0  0  0  0  0  0  0  0  0  0
   -0.0012   18.7896   19.5011 O   0  0  0  0  0  0  0  0  0  0  0  0
    3.4110   17.5334   19.8876 C   0  0  0  0  0  0  0  0  0  0  0  0
    4.3719   18.0417   20.9481 C   0  0  0  0  0  0  0  0  0  0  0  0
    5.2829   17.0206   21.6034 C   0  0  0  0  0  0  0  0  0  0  0  0
    4.1345   17.5908   22.3818 C   0  0  0  0  0  0  0  0  0  0  0  0
    4.7732   19.4958   20.7391 C   0  0  0  0  0  0  0  0  0  0  0  0
    6.0068   20.0427   21.1515 C   0  0  0  0  0  0  0  0  0  0  0  0
    0.6108   16.5772   19.5788 C   0  0  0  0  0  0  0  0  0  0  0  0
    0.9132   15.7898   20.7003 C   0  0  0  0  0  0  0  0  0  0  0  0
    0.5630   14.4457   20.7170 C   0  0  0  0  0  0  0  0  0  0  0  0
    0.8706   13.7064   21.7913 F   0  0  0  0  0  0  0  0  0  0  0  0
   -0.1043   13.8360   19.6520 C   0  0  0  0  0  0  0  0  0  0  0  0
   -0.4138   14.6496   18.5590 C   0  0  0  0  0  0  0  0  0  0  0  0
   -0.0789   16.0030   18.4939 C   0  0  0  0  0  0  0  0  0  0  0  0
   -0.5088   16.5407   17.2997 N   0  0  0  0  0  0  0  0  0  0  0  0
   -1.1003   15.5589   16.6605 C   0  0  0  0  0  0  0  0  0  0  0  0
   -1.0663   14.3979   17.3782 N   0  0  0  0  0  0  0  0  0  0  0  0
   -1.4617   13.5133   17.0923 H   0  0  0  0  0  0  0  0  0  0  0  0
    8.5347   22.0337   20.3454 C   0  0  0  0  0  0  0  0  0  0  0  0
    7.4875   22.0089   21.3065 O   0  0  0  0  0  0  0  0  0  0  0  0
 26 27  1  0  0  0
 27  1  1  0  0  0
  1  2  1  0  0  0
  2  3  2  0  0  0
  3  4  1  0  0  0
  4  5  1  0  0  0
  5  6  1  0  0  0
  6  7  1  0  0  0
  7  8  2  0  0  0
  7 15  1  0  0  0
 15 16  1  0  0  0
 16 17  2  0  0  0
 17 18  1  0  0  0
 17 19  1  0  0  0
 19 20  2  0  0  0
 20 21  1  0  0  0
 21 22  1  0  0  0
 22 23  2  0  0  0
 23 24  1  0  0  0
  6  9  1  0  0  0
  9 10  1  0  0  0
 10 11  1  0  0  0
 11 12  1  0  0  0
 10 13  1  0  0  0
 13 14  1  0  0  0
 14  1  2  0  0  0
 13  4  2  0  0  0
 21 15  2  0  0  0
 12 10  1  0  0  0
 24 20  1  0  0  0
 24 25  1  0  0  0
M  END
> <minimizedAffinity>
-10.01328

$$$$
OCNT-2310956


 22 25  0  0  0  0  0  0  0  0999 V2000
    2.9953   17.7692   20.4299 N   0  0  0  0  0  0  0  0  0  0  0  0
    2.4617   16.6498   21.2337 C   0  0  0  0  0  0  0  0  0  0  0  0
    1.7117   15.6687   20.3369 C   0  0  0  0  0  0  0  0  0  0  0  0
    0.6058   16.3845   19.5524 C   0  0  0  0  0  0  0  0  0  0  0  0
    1.1853   17.5735   18.7769 C   0  0  0  0  0  0  0  0  0  0  0  0
    1.9411   18.5089   19.7148 C   0  0  0  0  0  0  0  0  0  0  0  0
    8.4260   22.2294   20.7728 C   0  0  0  0  0  0  0  0  0  0  0  0
    7.3715   21.2311   21.0416 C   0  0  0  0  0  0  0  0  0  0  0  0
    6.4711   20.8783   20.1169 N   0  0  0  0  0  0  0  0  0  0  0  0
    5.7353   19.9744   20.7829 N   0  0  0  0  0  0  0  0  0  0  0  0
    4.6978   19.3484   20.1893 N   0  0  0  0  0  0  0  0  0  0  0  0
    4.0820   18.4801   20.9508 C   0  0  0  0  0  0  0  0  0  0  0  0
    4.4888   18.2425   22.3856 C   0  0  0  0  0  0  0  0  0  0  0  0
    5.5331   18.9085   22.8930 C   0  0  0  0  0  0  0  0  0  0  0  0
    6.2128   19.8191   22.0663 C   0  0  0  0  0  0  0  0  0  0  0  0
    7.2496   20.6037   22.2565 N   0  0  0  0  0  0  0  0  0  0  0  0
   -0.1659   15.4482   18.6475 C   0  0  0  0  0  0  0  0  0  0  0  0
   -0.3205   14.1035   18.9371 C   0  0  0  0  0  0  0  0  0  0  0  0
   -1.0388   13.3576   18.0286 C   0  0  0  0  0  0  0  0  0  0  0  0
   -1.5755   13.8671   16.9071 N   0  0  0  0  0  0  0  0  0  0  0  0
   -1.3693   15.1768   16.7144 C   0  0  0  0  0  0  0  0  0  0  0  0
   -0.6866   15.9980   17.5288 N   0  0  0  0  0  0  0  0  0  0  0  0
  7  8  1  0  0  0
  8  9  2  0  0  0
  9 10  1  0  0  0
 10 11  1  0  0  0
 11 12  2  0  0  0
 12  1  1  0  0  0
  1  2  1  0  0  0
  2  3  1  0  0  0
  3  4  1  0  0  0
  4 17  1  0  0  0
 17 18  1  0  0  0
 18 19  2  0  0  0
 19 20  1  0  0  0
 20 21  2  0  0  0
 21 22  1  0  0  0
  4  5  1  0  0  0
  5  6  1  0  0  0
 12 13  1  0  0  0
 13 14  2  0  0  0
 14 15  1  0  0  0
 15 16  2  0  0  0
 16  8  1  0  0  0
 15 10  1  0  0  0
  6  1  1  0  0  0
 22 17  2  0  0  0
M  END
> <minimizedAffinity>
-4.62156

$$$$
OCNT-2310962


 27 29  0  0  0  0  0  0  0  0999 V2000
    1.3174   18.7439   19.4264 C   0  0  0  0  0  0  0  0  0  0  0  0
    0.5988   19.7360   19.4636 O   0  0  0  0  0  0  0  0  0  0  0  0
    2.6686   18.7014   19.6883 N   0  0  0  0  0  0  0  0  0  0  0  0
    3.1382   17.8004   19.7438 H   0  0  0  0  0  0  0  0  0  0  0  0
    3.5427   19.7744   19.9928 C   0  0  0  0  0  0  0  0  0  0  0  0
    3.3650   21.0738   19.5079 C   0  0  0  0  0  0  0  0  0  0  0  0
    4.2687   22.0777   19.8488 C   0  0  0  0  0  0  0  0  0  0  0  0
    5.3522   21.7863   20.6721 C   0  0  0  0  0  0  0  0  0  0  0  0
    5.5401   20.4835   21.1598 C   0  0  0  0  0  0  0  0  0  0  0  0
    6.6244   20.1645   21.9883 C   0  0  0  0  0  0  0  0  0  0  0  0
    6.7829   18.8655   22.4534 C   0  0  0  0  0  0  0  0  0  0  0  0
    5.8487   17.9224   22.0732 C   0  0  0  0  0  0  0  0  0  0  0  0
    4.7901   18.1877   21.2761 N   0  0  0  0  0  0  0  0  0  0  0  0
    4.6320   19.4566   20.8220 C   0  0  0  0  0  0  0  0  0  0  0  0
    0.4099   15.0824   19.6868 C   0  0  0  0  0  0  0  0  0  0  0  0
   -0.4313   14.9195   18.5852 C   0  0  0  0  0  0  0  0  0  0  0  0
   -0.7224   16.0066   17.7553 C   0  0  0  0  0  0  0  0  0  0  0  0
   -0.1667   17.2602   18.0133 C   0  0  0  0  0  0  0  0  0  0  0  0
    0.6949   17.4275   19.1032 C   0  0  0  0  0  0  0  0  0  0  0  0
    0.9678   16.3382   19.9412 C   0  0  0  0  0  0  0  0  0  0  0  0
    0.7780   14.1095   20.5750 O   0  0  0  0  0  0  0  0  0  0  0  0
    1.1643   14.5086   21.8853 C   0  0  0  0  0  0  0  0  0  0  0  0
    3.0565   16.0279   22.1954 N   0  0  0  0  0  0  0  0  0  0  0  0
    2.6681   14.7263   22.0422 C   0  0  0  0  0  0  0  0  0  0  0  0
    3.4842   13.8111   22.0717 O   0  0  0  0  0  0  0  0  0  0  0  0
    2.4334   16.7666   21.8888 H   0  0  0  0  0  0  0  0  0  0  0  0
    4.0507   16.2134   22.1921 H   0  0  0  0  0  0  0  0  0  0  0  0
 23 24  1  0  0  0
 24 25  2  0  0  0
 24 22  1  0  0  0
 22 21  1  0  0  0
 21 15  1  0  0  0
 15 16  1  0  0  0
 16 17  2  0  0  0
 17 18  1  0  0  0
 18 19  2  0  0  0
 19  1  1  0  0  0
  1  2  2  0  0  0
  1  3  1  0  0  0
  3  5  1  0  0  0
  5  6  1  0  0  0
  6  7  2  0  0  0
  7  8  1  0  0  0
  8  9  2  0  0  0
  9 10  1  0  0  0
 10 11  2  0  0  0
 11 12  1  0  0  0
 12 13  2  0  0  0
 13 14  1  0  0  0
 19 20  1  0  0  0
 20 15  2  0  0  0
 14  5  2  0  0  0
 14  9  1  0  0  0
 23 26  1  0  0  0
 23 27  1  0  0  0
  3  4  1  0  0  0
M  END
> <minimizedAffinity>
-11.26099

$$$$
OCNT-2310967


 28 30  0  0  0  0  0  0  0  0999 V2000
    4.5171   16.5977   21.7091 C   0  0  0  0  0  0  0  0  0  0  0  0
    5.1574   15.6049   21.3777 O   0  0  0  0  0  0  0  0  0  0  0  0
    3.2023   16.4993   22.1222 N   0  0  0  0  0  0  0  0  0  0  0  0
    2.6540   17.3428   22.1957 H   0  0  0  0  0  0  0  0  0  0  0  0
    3.2009   20.0907   19.5885 C   0  0  0  0  0  0  0  0  0  0  0  0
    3.4395   18.9527   20.1459 N   0  0  0  0  0  0  0  0  0  0  0  0
    4.5353   18.9855   20.9590 N   0  0  0  0  0  0  0  0  0  0  0  0
    5.0384   17.9384   21.7026 C   0  0  0  0  0  0  0  0  0  0  0  0
    6.1188   18.4857   22.3728 C   0  0  0  0  0  0  0  0  0  0  0  0
    6.2895   19.8122   22.0806 N   0  0  0  0  0  0  0  0  0  0  0  0
    5.3322   20.0937   21.2250 C   0  0  0  0  0  0  0  0  0  0  0  0
    5.0084   21.3063   20.5724 C   0  0  0  0  0  0  0  0  0  0  0  0
    3.9553   21.3479   19.7468 C   0  0  0  0  0  0  0  0  0  0  0  0
    0.9091   20.6043   19.3498 C   0  0  0  0  0  0  0  0  0  0  0  0
    2.1696   20.3055   18.7375 O   0  0  0  0  0  0  0  0  0  0  0  0
    2.4841   15.2473   22.0555 C   0  0  0  0  0  0  0  0  0  0  0  0
    1.5046   15.2524   20.9132 C   0  0  0  0  0  0  0  0  0  0  0  0
    0.7548   14.1165   20.5978 C   0  0  0  0  0  0  0  0  0  0  0  0
   -0.1494   14.1887   19.5488 C   0  0  0  0  0  0  0  0  0  0  0  0
   -0.3598   15.2983   18.8093 N   0  0  0  0  0  0  0  0  0  0  0  0
    0.3685   16.3867   19.1349 C   0  0  0  0  0  0  0  0  0  0  0  0
    1.2974   16.4140   20.1620 C   0  0  0  0  0  0  0  0  0  0  0  0
    0.2013   17.5570   18.4256 O   0  0  0  0  0  0  0  0  0  0  0  0
   -1.1735   17.8437   18.1363 C   0  0  0  0  0  0  0  0  0  0  0  0
   -1.2883   18.5932   16.8226 C   0  0  0  0  0  0  0  0  0  0  0  0
   -1.2951   17.7272   15.7804 F   0  0  0  0  0  0  0  0  0  0  0  0
   -2.4306   19.3130   16.7513 F   0  0  0  0  0  0  0  0  0  0  0  0
   -0.2509   19.4391   16.6326 F   0  0  0  0  0  0  0  0  0  0  0  0
 14 15  1  0  0  0
 15  5  1  0  0  0
  5  6  2  0  0  0
  6  7  1  0  0  0
  7  8  1  0  0  0
  8  1  1  0  0  0
  1  2  2  0  0  0
  1  3  1  0  0  0
  3 16  1  0  0  0
 16 17  1  0  0  0
 17 18  2  0  0  0
 18 19  1  0  0  0
 19 20  2  0  0  0
 20 21  1  0  0  0
 21 23  1  0  0  0
 23 24  1  0  0  0
 24 25  1  0  0  0
 25 26  1  0  0  0
 25 27  1  0  0  0
 25 28  1  0  0  0
 21 22  2  0  0  0
  8  9  2  0  0  0
  9 10  1  0  0  0
 10 11  2  0  0  0
 11 12  1  0  0  0
 12 13  2  0  0  0
 13  5  1  0  0  0
 11  7  1  0  0  0
 22 17  1  0  0  0
  3  4  1  0  0  0
M  END
> <minimizedAffinity>
-9.49357

$$$$
OCNT-2310968


 28 31  0  0  0  0  0  0  0  0999 V2000
    1.2846   13.7350   21.1913 O   0  0  0  0  0  0  0  0  0  0  0  0
    1.3241   14.8376   20.6511 C   0  0  0  0  0  0  0  0  0  0  0  0
    2.2338   15.7945   21.0231 N   0  0  0  0  0  0  0  0  0  0  0  0
    0.4778   15.2008   19.6088 N   0  0  0  0  0  0  0  0  0  0  0  0
   -0.6082   14.2894   19.2719 C   0  0  0  0  0  0  0  0  0  0  0  0
   -0.7968   14.1134   17.7689 C   0  0  0  0  0  0  0  0  0  0  0  0
   -0.3304   15.3046   16.9337 C   0  0  0  0  0  0  0  0  0  0  0  0
   -0.3873   16.6490   17.6907 C   0  0  0  0  0  0  0  0  0  0  0  0
   -1.8565   17.0153   18.0436 C   0  0  0  0  0  0  0  0  0  0  0  0
   -2.0904   18.5210   17.9918 C   0  0  0  0  0  0  0  0  0  0  0  0
   -1.8635   19.0690   16.6949 O   0  0  0  0  0  0  0  0  0  0  0  0
   -0.8569   18.4139   15.9257 C   0  0  0  0  0  0  0  0  0  0  0  0
    0.2123   17.7715   16.7981 C   0  0  0  0  0  0  0  0  0  0  0  0
    0.4895   16.5182   18.9638 C   0  0  0  0  0  0  0  0  0  0  0  0
    1.9681   16.7509   20.8686 H   0  0  0  0  0  0  0  0  0  0  0  0
    3.1231   15.5790   22.1440 C   0  0  0  0  0  0  0  0  0  0  0  0
    4.1480   16.6820   22.2396 C   0  0  0  0  0  0  0  0  0  0  0  0
    5.2805   16.6846   21.4149 C   0  0  0  0  0  0  0  0  0  0  0  0
    6.2120   17.7240   21.4909 C   0  0  0  0  0  0  0  0  0  0  0  0
    6.0232   18.7850   22.3876 C   0  0  0  0  0  0  0  0  0  0  0  0
    4.8876   18.7831   23.2099 C   0  0  0  0  0  0  0  0  0  0  0  0
    3.9588   17.7440   23.1333 C   0  0  0  0  0  0  0  0  0  0  0  0
    7.0183   19.9162   22.4666 C   0  0  0  0  0  0  0  0  0  0  0  0
    6.7399   20.9482   21.4842 N   0  0  0  0  0  0  0  0  0  0  0  0
    5.5352   21.4996   21.1731 C   0  0  0  0  0  0  0  0  0  0  0  0
    5.6875   22.3697   20.2015 N   0  0  0  0  0  0  0  0  0  0  0  0
    7.0280   22.3105   19.9459 C   0  0  0  0  0  0  0  0  0  0  0  0
    7.7154   21.4462   20.6971 N   0  0  0  0  0  0  0  0  0  0  0  0
  1  2  2  0  0  0
  2  3  1  0  0  0
  3 16  1  0  0  0
 16 17  1  0  0  0
 17 18  1  0  0  0
 18 19  2  0  0  0
 19 20  1  0  0  0
 20 23  1  0  0  0
 23 24  1  0  0  0
 24 25  1  0  0  0
 25 26  2  0  0  0
 26 27  1  0  0  0
 27 28  2  0  0  0
 20 21  2  0  0  0
 21 22  1  0  0  0
  2  4  1  0  0  0
  4  5  1  0  0  0
  5  6  1  0  0  0
  6  7  1  0  0  0
  7  8  1  0  0  0
  8  9  1  0  0  0
  9 10  1  0  0  0
 10 11  1  0  0  0
 11 12  1  0  0  0
 12 13  1  0  0  0
  8 14  1  0  0  0
 22 17  2  0  0  0
 14  4  1  0  0  0
 28 24  1  0  0  0
 13  8  1  0  0  0
  3 15  1  0  0  0
M  END
> <minimizedAffinity>
-4.15651

$$$$
OCNT-2310978


 22 24  0  0  0  0  0  0  0  0999 V2000
    1.6663   19.0696   19.2753 N   0  0  0  0  0  0  0  0  0  0  0  0
    1.0578   19.7308   19.7532 H   0  0  0  0  0  0  0  0  0  0  0  0
    2.8980   19.0899   19.9452 C   0  0  0  0  0  0  0  0  0  0  0  0
    3.2831   17.9414   20.5567 N   0  0  0  0  0  0  0  0  0  0  0  0
    4.4534   17.9053   21.2354 C   0  0  0  0  0  0  0  0  0  0  0  0
    4.8349   16.5910   21.8462 C   0  0  0  0  0  0  0  0  0  0  0  0
    5.3273   18.9191   21.3832 N   0  0  0  0  0  0  0  0  0  0  0  0
    4.8973   20.0464   20.7932 C   0  0  0  0  0  0  0  0  0  0  0  0
    3.7246   20.2096   20.0799 C   0  0  0  0  0  0  0  0  0  0  0  0
    3.7311   21.5689   19.7020 C   0  0  0  0  0  0  0  0  0  0  0  0
    4.8270   22.2192   20.1121 N   0  0  0  0  0  0  0  0  0  0  0  0
    5.5198   21.2653   20.7766 N   0  0  0  0  0  0  0  0  0  0  0  0
    6.7810   21.6022   21.3866 C   0  0  0  0  0  0  0  0  0  0  0  0
    0.2344   15.6331   19.2501 C   0  0  0  0  0  0  0  0  0  0  0  0
    0.9206   16.8021   19.6331 C   0  0  0  0  0  0  0  0  0  0  0  0
    0.9350   17.9496   18.8301 C   0  0  0  0  0  0  0  0  0  0  0  0
    0.2783   17.9031   17.6002 C   0  0  0  0  0  0  0  0  0  0  0  0
   -0.4029   16.7507   17.1989 C   0  0  0  0  0  0  0  0  0  0  0  0
   -0.4314   15.6067   18.0102 C   0  0  0  0  0  0  0  0  0  0  0  0
   -1.1878   14.3966   17.5354 C   0  0  0  0  0  0  0  0  0  0  0  0
    1.3638   14.5721   21.2297 C   0  0  0  0  0  0  0  0  0  0  0  0
    0.2683   14.4427   20.1817 C   0  0  0  0  0  0  0  0  0  0  0  0
 21 22  1  0  0  0
 22 14  1  0  0  0
 14 15  1  0  0  0
 15 16  2  0  0  0
 16  1  1  0  0  0
  1  3  1  0  0  0
  3  4  1  0  0  0
  4  5  2  0  0  0
  5  6  1  0  0  0
  5  7  1  0  0  0
  7  8  2  0  0  0
  8  9  1  0  0  0
  9 10  1  0  0  0
 10 11  2  0  0  0
 11 12  1  0  0  0
 12 13  1  0  0  0
 16 17  1  0  0  0
 17 18  2  0  0  0
 18 19  1  0  0  0
 19 20  1  0  0  0
 19 14  2  0  0  0
  9  3  2  0  0  0
 12  8  1  0  0  0
  1  2  1  0  0  0
M  END
> <minimizedAffinity>
-10.67680

$$$$
OCNT-2310979


 27 30  0  0  0  0  0  0  0  0999 V2000
    2.3908   16.7531   20.8906 C   0  0  0  0  0  0  0  0  0  0  0  0
    1.5152   16.8158   20.0349 O   0  0  0  0  0  0  0  0  0  0  0  0
    2.5293   15.7557   21.8374 N   0  0  0  0  0  0  0  0  0  0  0  0
    3.3481   15.7380   22.4296 H   0  0  0  0  0  0  0  0  0  0  0  0
    4.0424   21.2717   19.4845 C   0  0  0  0  0  0  0  0  0  0  0  0
    4.3075   20.0110   20.2695 C   0  0  0  0  0  0  0  0  0  0  0  0
    3.2994   19.0201   20.2324 C   0  0  0  0  0  0  0  0  0  0  0  0
    3.4413   17.8092   20.9183 C   0  0  0  0  0  0  0  0  0  0  0  0
    4.6138   17.5611   21.6286 C   0  0  0  0  0  0  0  0  0  0  0  0
    5.6238   18.5263   21.6812 C   0  0  0  0  0  0  0  0  0  0  0  0
    5.4887   19.7617   21.0144 C   0  0  0  0  0  0  0  0  0  0  0  0
    6.5567   20.7105   21.1161 N   0  0  0  0  0  0  0  0  0  0  0  0
    7.0871   21.2900   22.2506 C   0  0  0  0  0  0  0  0  0  0  0  0
    8.0536   22.1252   21.9453 N   0  0  0  0  0  0  0  0  0  0  0  0
    8.0996   22.0372   20.5919 C   0  0  0  0  0  0  0  0  0  0  0  0
    7.2203   21.2024   20.0417 N   0  0  0  0  0  0  0  0  0  0  0  0
    1.6435   14.7036   21.9779 C   0  0  0  0  0  0  0  0  0  0  0  0
    0.6610   14.6510   22.9372 C   0  0  0  0  0  0  0  0  0  0  0  0
   -0.0173   13.4600   22.7631 N   0  0  0  0  0  0  0  0  0  0  0  0
    0.4952   12.7513   21.7240 N   0  0  0  0  0  0  0  0  0  0  0  0
    1.4937   13.5051   21.2587 C   0  0  0  0  0  0  0  0  0  0  0  0
   -1.1163   12.9583   23.5178 C   0  0  0  0  0  0  0  0  0  0  0  0
   -1.5233   13.6391   24.6761 C   0  0  0  0  0  0  0  0  0  0  0  0
   -2.5980   13.1660   25.4321 C   0  0  0  0  0  0  0  0  0  0  0  0
   -3.2733   12.0127   25.0394 C   0  0  0  0  0  0  0  0  0  0  0  0
   -2.8760   11.3306   23.8907 C   0  0  0  0  0  0  0  0  0  0  0  0
   -1.8008   11.7982   23.1283 C   0  0  0  0  0  0  0  0  0  0  0  0
  5  6  1  0  0  0
  6  7  1  0  0  0
  7  8  2  0  0  0
  8  1  1  0  0  0
  1  2  2  0  0  0
  1  3  1  0  0  0
  3 17  1  0  0  0
 17 18  2  0  0  0
 18 19  1  0  0  0
 19 22  1  0  0  0
 22 23  2  0  0  0
 23 24  1  0  0  0
 24 25  2  0  0  0
 25 26  1  0  0  0
 26 27  2  0  0  0
 19 20  1  0  0  0
 20 21  2  0  0  0
  8  9  1  0  0  0
  9 10  2  0  0  0
 10 11  1  0  0  0
 11 12  1  0  0  0
 12 13  1  0  0  0
 13 14  2  0  0  0
 14 15  1  0  0  0
 15 16  2  0  0  0
 11  6  2  0  0  0
 16 12  1  0  0  0
 21 17  1  0  0  0
 27 22  1  0  0  0
  3  4  1  0  0  0
M  END
> <minimizedAffinity>
-0.28730

$$$$
OCNT-2310981


 24 27  0  0  0  0  0  0  0  0999 V2000
    0.9063   19.2131   18.3188 C   0  0  0  0  0  0  0  0  0  0  0  0
    1.0140   20.2139   19.4794 C   0  0  0  0  0  0  0  0  0  0  0  0
    2.4699   20.5692   19.7781 C   0  0  0  0  0  0  0  0  0  0  0  0
    3.2485   19.3773   20.1258 N   0  0  0  0  0  0  0  0  0  0  0  0
    2.6975   18.0768   19.7376 C   0  0  0  0  0  0  0  0  0  0  0  0
    2.0396   18.1730   18.3621 C   0  0  0  0  0  0  0  0  0  0  0  0
    4.4443   19.4630   20.8448 C   0  0  0  0  0  0  0  0  0  0  0  0
    4.7368   18.4939   21.6982 N   0  0  0  0  0  0  0  0  0  0  0  0
    5.9043   18.5425   22.4368 C   0  0  0  0  0  0  0  0  0  0  0  0
    6.8077   19.5310   22.3515 C   0  0  0  0  0  0  0  0  0  0  0  0
    6.5445   20.5522   21.4682 N   0  0  0  0  0  0  0  0  0  0  0  0
    7.2175   21.6829   21.1166 C   0  0  0  0  0  0  0  0  0  0  0  0
    6.5381   22.3348   20.1962 N   0  0  0  0  0  0  0  0  0  0  0  0
    5.3872   21.6151   19.9343 N   0  0  0  0  0  0  0  0  0  0  0  0
    5.4046   20.5554   20.7148 C   0  0  0  0  0  0  0  0  0  0  0  0
   -0.5040   18.5989   18.1748 C   0  0  0  0  0  0  0  0  0  0  0  0
   -0.8256   12.9642   17.8331 F   0  0  0  0  0  0  0  0  0  0  0  0
   -0.7487   14.2994   17.9174 C   0  0  0  0  0  0  0  0  0  0  0  0
   -1.0629   15.0724   16.8061 C   0  0  0  0  0  0  0  0  0  0  0  0
   -0.9862   16.4657   16.8891 C   0  0  0  0  0  0  0  0  0  0  0  0
   -0.5873   17.0922   18.0815 C   0  0  0  0  0  0  0  0  0  0  0  0
   -0.2866   16.2932   19.1957 C   0  0  0  0  0  0  0  0  0  0  0  0
   -0.3655   14.9057   19.1055 C   0  0  0  0  0  0  0  0  0  0  0  0
   -0.0696   14.1608   20.1795 F   0  0  0  0  0  0  0  0  0  0  0  0
 17 18  1  0  0  0
 18 19  1  0  0  0
 19 20  2  0  0  0
 20 21  1  0  0  0
 21 16  1  0  0  0
 16  1  1  0  0  0
  1  2  1  0  0  0
  2  3  1  0  0  0
  3  4  1  0  0  0
  4  7  1  0  0  0
  7  8  2  0  0  0
  8  9  1  0  0  0
  9 10  2  0  0  0
 10 11  1  0  0  0
 11 12  1  0  0  0
 12 13  2  0  0  0
 13 14  1  0  0  0
 14 15  2  0  0  0
  4  5  1  0  0  0
  5  6  1  0  0  0
 21 22  2  0  0  0
 22 23  1  0  0  0
 23 24  1  0  0  0
 23 18  2  0  0  0
  6  1  1  0  0  0
 15  7  1  0  0  0
 15 11  1  0  0  0
M  END
> <minimizedAffinity>
-8.70271

$$$$
OCNT-2310983


 30 33  0  0  0  0  0  0  0  0999 V2000
    2.0322   16.3006   21.2902 N   0  0  0  0  0  0  0  0  0  0  0  0
    1.7898   17.1778   20.2549 C   0  0  0  0  0  0  0  0  0  0  0  0
    0.7773   17.1681   19.5596 O   0  0  0  0  0  0  0  0  0  0  0  0
    2.7945   18.1199   20.0367 N   0  0  0  0  0  0  0  0  0  0  0  0
    2.5583   19.1483   19.0159 C   0  0  0  0  0  0  0  0  0  0  0  0
    3.1108   20.5150   19.4341 C   0  0  0  0  0  0  0  0  0  0  0  0
    4.5312   20.4763   19.8113 N   0  0  0  0  0  0  0  0  0  0  0  0
    5.2444   21.6733   19.7927 C   0  0  0  0  0  0  0  0  0  0  0  0
    4.6789   22.7418   19.5550 O   0  0  0  0  0  0  0  0  0  0  0  0
    5.0924   19.1540   20.1104 C   0  0  0  0  0  0  0  0  0  0  0  0
    4.0717   18.1994   20.7532 C   0  0  0  0  0  0  0  0  0  0  0  0
    2.9198   16.3747   21.7552 H   0  0  0  0  0  0  0  0  0  0  0  0
   -1.9372   12.1543   24.0789 C   0  0  0  0  0  0  0  0  0  0  0  0
   -1.9238   13.2623   24.9070 C   0  0  0  0  0  0  0  0  0  0  0  0
   -1.1328   14.3437   24.5393 C   0  0  0  0  0  0  0  0  0  0  0  0
   -0.3768   14.2826   23.3608 C   0  0  0  0  0  0  0  0  0  0  0  0
    0.4372   15.3568   22.9468 C   0  0  0  0  0  0  0  0  0  0  0  0
    1.1868   15.2764   21.7721 C   0  0  0  0  0  0  0  0  0  0  0  0
    1.1116   14.1043   21.0147 C   0  0  0  0  0  0  0  0  0  0  0  0
    0.2952   13.0417   21.4235 C   0  0  0  0  0  0  0  0  0  0  0  0
   -0.4540   13.1052   22.5892 C   0  0  0  0  0  0  0  0  0  0  0  0
   -1.2207   12.0575   22.9371 N   0  0  0  0  0  0  0  0  0  0  0  0
   -4.1053   11.4750   24.6356 C   0  0  0  0  0  0  0  0  0  0  0  0
   -2.7380   11.1041   24.4836 O   0  0  0  0  0  0  0  0  0  0  0  0
    6.7246   21.5993   20.1107 C   0  0  0  0  0  0  0  0  0  0  0  0
    7.0166   21.1807   21.4648 N   0  0  0  0  0  0  0  0  0  0  0  0
    6.6014   21.7062   22.6482 C   0  0  0  0  0  0  0  0  0  0  0  0
    6.9823   20.9044   23.6179 N   0  0  0  0  0  0  0  0  0  0  0  0
    7.6314   19.8579   23.0067 N   0  0  0  0  0  0  0  0  0  0  0  0
    7.6370   20.0057   21.6873 N   0  0  0  0  0  0  0  0  0  0  0  0
 23 24  1  0  0  0
 24 13  1  0  0  0
 13 14  1  0  0  0
 14 15  2  0  0  0
 15 16  1  0  0  0
 16 17  2  0  0  0
 17 18  1  0  0  0
 18  1  1  0  0  0
  1  2  1  0  0  0
  2  3  2  0  0  0
  2  4  1  0  0  0
  4  5  1  0  0  0
  5  6  1  0  0  0
  6  7  1  0  0  0
  7  8  1  0  0  0
  8  9  2  0  0  0
  8 25  1  0  0  0
 25 26  1  0  0  0
 26 27  1  0  0  0
 27 28  2  0  0  0
 28 29  1  0  0  0
 29 30  2  0  0  0
  7 10  1  0  0  0
 10 11  1  0  0  0
 18 19  2  0  0  0
 19 20  1  0  0  0
 20 21  2  0  0  0
 21 22  1  0  0  0
 22 13  2  0  0  0
 21 16  1  0  0  0
 11  4  1  0  0  0
 30 26  1  0  0  0
  1 12  1  0  0  0
M  END
> <minimizedAffinity>
2.02014

$$$$
OCNT-2310986


 25 27  0  0  0  0  0  0  0  0999 V2000
    1.9010   16.5990   21.0685 N   0  0  0  0  0  0  0  0  0  0  0  0
    3.2360   16.5765   21.3944 C   0  0  0  0  0  0  0  0  0  0  0  0
    3.8371   15.5630   21.7325 O   0  0  0  0  0  0  0  0  0  0  0  0
    1.5459   17.3783   20.5307 H   0  0  0  0  0  0  0  0  0  0  0  0
    3.9459   17.8853   21.2470 C   0  0  0  0  0  0  0  0  0  0  0  0
    5.1090   18.1139   21.8719 C   0  0  0  0  0  0  0  0  0  0  0  0
    5.7725   19.3909   21.6611 C   0  0  0  0  0  0  0  0  0  0  0  0
    6.9826   19.6862   22.3001 C   0  0  0  0  0  0  0  0  0  0  0  0
    7.6086   20.9168   22.0865 C   0  0  0  0  0  0  0  0  0  0  0  0
    7.0319   21.8580   21.2349 C   0  0  0  0  0  0  0  0  0  0  0  0
    5.8272   21.5697   20.5940 C   0  0  0  0  0  0  0  0  0  0  0  0
    5.1982   20.3356   20.8072 C   0  0  0  0  0  0  0  0  0  0  0  0
    3.9185   20.0382   20.1203 C   0  0  0  0  0  0  0  0  0  0  0  0
    3.3974   20.8586   19.3741 O   0  0  0  0  0  0  0  0  0  0  0  0
    3.3573   18.8199   20.3660 O   0  0  0  0  0  0  0  0  0  0  0  0
    1.1583   15.3629   20.9237 C   0  0  0  0  0  0  0  0  0  0  0  0
   -0.4291   16.6004   17.8218 C   0  0  0  0  0  0  0  0  0  0  0  0
   -1.0021   15.4448   17.2868 C   0  0  0  0  0  0  0  0  0  0  0  0
   -0.8613   14.2250   17.9441 C   0  0  0  0  0  0  0  0  0  0  0  0
   -0.1618   14.1784   19.1392 C   0  0  0  0  0  0  0  0  0  0  0  0
    0.3585   15.3629   19.6434 C   0  0  0  0  0  0  0  0  0  0  0  0
    0.2422   16.5535   18.9952 N   0  0  0  0  0  0  0  0  0  0  0  0
    0.4129   18.8265   17.5561 C   0  0  0  0  0  0  0  0  0  0  0  0
   -0.5793   17.8317   17.1497 N   0  0  0  0  0  0  0  0  0  0  0  0
   -1.9571   18.3212   17.1544 C   0  0  0  0  0  0  0  0  0  0  0  0
 23 24  1  0  0  0
 24 25  1  0  0  0
 24 17  1  0  0  0
 17 18  1  0  0  0
 18 19  2  0  0  0
 19 20  1  0  0  0
 20 21  2  0  0  0
 21 16  1  0  0  0
 16  1  1  0  0  0
  1  2  1  0  0  0
  2  3  2  0  0  0
  2  5  1  0  0  0
  5  6  2  0  0  0
  6  7  1  0  0  0
  7  8  2  0  0  0
  8  9  1  0  0  0
  9 10  2  0  0  0
 10 11  1  0  0  0
 11 12  2  0  0  0
 12 13  1  0  0  0
 13 14  2  0  0  0
 13 15  1  0  0  0
 21 22  1  0  0  0
 22 17  2  0  0  0
 15  5  1  0  0  0
 12  7  1  0  0  0
  1  4  1  0  0  0
M  END
> <minimizedAffinity>
-10.78537

$$$$
OCNT-2310988


 28 31  0  0  0  0  0  0  0  0999 V2000
    1.8999   13.1502   21.3238 O   0  0  0  0  0  0  0  0  0  0  0  0
    1.3332   14.2363   21.2393 C   0  0  0  0  0  0  0  0  0  0  0  0
    1.9623   15.4437   21.4601 N   0  0  0  0  0  0  0  0  0  0  0  0
    1.3815   16.2697   21.5357 H   0  0  0  0  0  0  0  0  0  0  0  0
   -0.1395   14.3619   20.8817 C   0  0  0  0  0  0  0  0  0  0  0  0
   -0.3152   14.8619   19.4827 C   0  0  0  0  0  0  0  0  0  0  0  0
   -0.5784   14.0993   18.3558 C   0  0  0  0  0  0  0  0  0  0  0  0
   -0.6349   14.9393   17.2719 N   0  0  0  0  0  0  0  0  0  0  0  0
   -0.4180   16.2279   17.6704 C   0  0  0  0  0  0  0  0  0  0  0  0
   -0.4007   17.2862   16.8406 N   0  0  0  0  0  0  0  0  0  0  0  0
   -0.1722   18.4535   17.4838 C   0  0  0  0  0  0  0  0  0  0  0  0
    0.0369   18.5983   18.8491 C   0  0  0  0  0  0  0  0  0  0  0  0
    0.0140   17.4635   19.6623 C   0  0  0  0  0  0  0  0  0  0  0  0
   -0.2253   16.2234   19.0468 C   0  0  0  0  0  0  0  0  0  0  0  0
   -0.8141   14.6780   16.3133 H   0  0  0  0  0  0  0  0  0  0  0  0
    3.2857   15.5167   22.0366 C   0  0  0  0  0  0  0  0  0  0  0  0
    3.9420   16.8272   21.6810 C   0  0  0  0  0  0  0  0  0  0  0  0
    5.1030   17.2469   22.3412 C   0  0  0  0  0  0  0  0  0  0  0  0
    5.7009   18.4773   22.0397 C   0  0  0  0  0  0  0  0  0  0  0  0
    5.1574   19.3134   21.0517 C   0  0  0  0  0  0  0  0  0  0  0  0
    4.0031   18.8811   20.3877 C   0  0  0  0  0  0  0  0  0  0  0  0
    3.4054   19.6153   19.4396 F   0  0  0  0  0  0  0  0  0  0  0  0
    3.4015   17.6582   20.6970 C   0  0  0  0  0  0  0  0  0  0  0  0
    5.7771   20.5599   20.7434 N   0  0  0  0  0  0  0  0  0  0  0  0
    5.1920   21.7073   20.2491 C   0  0  0  0  0  0  0  0  0  0  0  0
    6.2006   22.6310   20.1033 C   0  0  0  0  0  0  0  0  0  0  0  0
    7.3956   22.1061   20.4934 N   0  0  0  0  0  0  0  0  0  0  0  0
    7.1163   20.8792   20.8780 C   0  0  0  0  0  0  0  0  0  0  0  0
  1  2  2  0  0  0
  2  5  1  0  0  0
  5  6  1  0  0  0
  6  7  2  0  0  0
  7  8  1  0  0  0
  8  9  1  0  0  0
  9 10  1  0  0  0
 10 11  2  0  0  0
 11 12  1  0  0  0
 12 13  2  0  0  0
 13 14  1  0  0  0
  2  3  1  0  0  0
  3 16  1  0  0  0
 16 17  1  0  0  0
 17 18  1  0  0  0
 18 19  2  0  0  0
 19 20  1  0  0  0
 20 24  1  0  0  0
 24 25  1  0  0  0
 25 26  2  0  0  0
 26 27  1  0  0  0
 27 28  2  0  0  0
 20 21  2  0  0  0
 21 22  1  0  0  0
 21 23  1  0  0  0
 14  6  1  0  0  0
 23 17  2  0  0  0
 14  9  2  0  0  0
 28 24  1  0  0  0
  8 15  1  0  0  0
  3  4  1  0  0  0
M  END
> <minimizedAffinity>
-8.84113

$$$$
OCNT-2310993


 27 30  0  0  0  0  0  0  0  0999 V2000
    2.6063   19.2921   19.3701 C   0  0  0  0  0  0  0  0  0  0  0  0
    3.5051   19.4312   18.5448 O   0  0  0  0  0  0  0  0  0  0  0  0
    2.7284   18.6736   20.5936 N   0  0  0  0  0  0  0  0  0  0  0  0
    1.9290   18.6567   21.2283 H   0  0  0  0  0  0  0  0  0  0  0  0
    3.8840   18.0851   21.1499 C   0  0  0  0  0  0  0  0  0  0  0  0
    4.0814   16.7387   21.3746 C   0  0  0  0  0  0  0  0  0  0  0  0
    5.2039   16.2348   21.9317 N   0  0  0  0  0  0  0  0  0  0  0  0
    6.1403   17.1336   22.2662 C   0  0  0  0  0  0  0  0  0  0  0  0
    6.0678   18.4620   22.0930 N   0  0  0  0  0  0  0  0  0  0  0  0
    4.9356   18.9306   21.5329 C   0  0  0  0  0  0  0  0  0  0  0  0
    4.7937   20.3246   21.2658 N   0  0  0  0  0  0  0  0  0  0  0  0
    5.0865   21.1740   22.4404 C   0  0  0  0  0  0  0  0  0  0  0  0
    6.3911   21.8901   22.1138 C   0  0  0  0  0  0  0  0  0  0  0  0
    6.3014   22.0503   20.6092 C   0  0  0  0  0  0  0  0  0  0  0  0
    5.7252   20.7073   20.1756 C   0  0  0  0  0  0  0  0  0  0  0  0
    1.2142   19.8328   19.1120 C   0  0  0  0  0  0  0  0  0  0  0  0
    0.1042   15.2264   19.3464 C   0  0  0  0  0  0  0  0  0  0  0  0
   -0.6872   14.8759   18.2432 C   0  0  0  0  0  0  0  0  0  0  0  0
   -1.0428   15.8083   17.2607 C   0  0  0  0  0  0  0  0  0  0  0  0
   -0.5670   17.1001   17.4498 C   0  0  0  0  0  0  0  0  0  0  0  0
   -0.7736   18.1632   16.6280 O   0  0  0  0  0  0  0  0  0  0  0  0
   -0.1378   19.2818   17.1460 N   0  0  0  0  0  0  0  0  0  0  0  0
    0.4365   18.8745   18.2877 C   0  0  0  0  0  0  0  0  0  0  0  0
    0.2062   17.4950   18.5257 C   0  0  0  0  0  0  0  0  0  0  0  0
    0.5593   16.5440   19.5024 C   0  0  0  0  0  0  0  0  0  0  0  0
    0.9943   14.5162   21.4372 C   0  0  0  0  0  0  0  0  0  0  0  0
    0.3630   14.1905   20.2043 O   0  0  0  0  0  0  0  0  0  0  0  0
 26 27  1  0  0  0
 27 17  1  0  0  0
 17 18  2  0  0  0
 18 19  1  0  0  0
 19 20  2  0  0  0
 20 21  1  0  0  0
 21 22  1  0  0  0
 22 23  2  0  0  0
 23 16  1  0  0  0
 16  1  1  0  0  0
  1  2  2  0  0  0
  1  3  1  0  0  0
  3  5  1  0  0  0
  5  6  2  0  0  0
  6  7  1  0  0  0
  7  8  2  0  0  0
  8  9  1  0  0  0
  9 10  2  0  0  0
 10 11  1  0  0  0
 11 12  1  0  0  0
 12 13  1  0  0  0
 13 14  1  0  0  0
 14 15  1  0  0  0
 23 24  1  0  0  0
 24 25  2  0  0  0
 25 17  1  0  0  0
 24 20  1  0  0  0
 10  5  1  0  0  0
 15 11  1  0  0  0
  3  4  1  0  0  0
M  END
> <minimizedAffinity>
-8.59930

$$$$
OCNT-2310994


 24 26  0  0  0  0  0  0  0  0999 V2000
    0.4211   14.8041   20.1271 C   0  0  0  0  0  0  0  0  0  0  0  0
   -0.2128   14.1817   19.0550 C   0  0  0  0  0  0  0  0  0  0  0  0
   -0.6523   14.9404   17.9663 C   0  0  0  0  0  0  0  0  0  0  0  0
   -0.4595   16.3211   17.9424 C   0  0  0  0  0  0  0  0  0  0  0  0
   -0.9470   16.9747   16.8431 O   0  0  0  0  0  0  0  0  0  0  0  0
   -1.1119   18.3830   17.0289 C   0  0  0  0  0  0  0  0  0  0  0  0
    0.1588   19.0150   17.5597 C   0  0  0  0  0  0  0  0  0  0  0  0
    0.4521   18.4516   18.9516 C   0  0  0  0  0  0  0  0  0  0  0  0
    0.2139   16.9600   18.9869 C   0  0  0  0  0  0  0  0  0  0  0  0
    0.6208   16.1887   20.0905 C   0  0  0  0  0  0  0  0  0  0  0  0
    1.8196   18.7811   19.3367 N   0  0  0  0  0  0  0  0  0  0  0  0
    2.1897   20.0785   19.6210 C   0  0  0  0  0  0  0  0  0  0  0  0
    1.3842   21.0012   19.5673 O   0  0  0  0  0  0  0  0  0  0  0  0
    2.4466   18.0110   19.5141 H   0  0  0  0  0  0  0  0  0  0  0  0
    3.5705   20.2495   19.9832 C   0  0  0  0  0  0  0  0  0  0  0  0
    4.4759   19.3357   20.4855 C   0  0  0  0  0  0  0  0  0  0  0  0
    4.2763   17.6834   20.8039 Cl  0  0  0  0  0  0  0  0  0  0  0  0
    5.6700   20.0554   20.6733 C   0  0  0  0  0  0  0  0  0  0  0  0
    5.5447   21.3407   20.3331 N   0  0  0  0  0  0  0  0  0  0  0  0
    4.2613   21.4328   19.9472 N   0  0  0  0  0  0  0  0  0  0  0  0
    3.9106   22.3483   19.6866 H   0  0  0  0  0  0  0  0  0  0  0  0
    0.8865   14.1997   21.2601 O   0  0  0  0  0  0  0  0  0  0  0  0
    3.1998   14.3094   21.9868 C   0  0  0  0  0  0  0  0  0  0  0  0
    1.8062   14.9038   22.0933 C   0  0  0  0  0  0  0  0  0  0  0  0
 23 24  1  0  0  0
 24 22  1  0  0  0
 22  1  1  0  0  0
  1  2  1  0  0  0
  2  3  2  0  0  0
  3  4  1  0  0  0
  4  5  1  0  0  0
  5  6  1  0  0  0
  6  7  1  0  0  0
  7  8  1  0  0  0
  8 11  1  0  0  0
 11 12  1  0  0  0
 12 13  2  0  0  0
 12 15  1  0  0  0
 15 16  2  0  0  0
 16 17  1  0  0  0
 16 18  1  0  0  0
 18 19  2  0  0  0
 19 20  1  0  0  0
  8  9  1  0  0  0
  9 10  1  0  0  0
 10  1  2  0  0  0
  9  4  2  0  0  0
 20 15  1  0  0  0
 11 14  1  0  0  0
 20 21  1  0  0  0
M  END
> <minimizedAffinity>
-9.34907

$$$$
OCNT-2310997


 30 33  0  0  0  0  0  0  0  0999 V2000
    3.2407   15.7789   22.5421 N   0  0  0  0  0  0  0  0  0  0  0  0
    4.3036   16.2681   21.8323 C   0  0  0  0  0  0  0  0  0  0  0  0
    4.7254   15.7251   20.8148 O   0  0  0  0  0  0  0  0  0  0  0  0
    4.8798   17.3979   22.3582 N   0  0  0  0  0  0  0  0  0  0  0  0
    4.5238   18.1067   23.5766 C   0  0  0  0  0  0  0  0  0  0  0  0
    5.3645   19.3742   23.5382 C   0  0  0  0  0  0  0  0  0  0  0  0
    6.6297   18.9258   22.8008 C   0  0  0  0  0  0  0  0  0  0  0  0
    6.0688   17.9706   21.7447 C   0  0  0  0  0  0  0  0  0  0  0  0
    2.7461   16.4336   23.1230 H   0  0  0  0  0  0  0  0  0  0  0  0
    2.4818   14.6417   22.0702 C   0  0  0  0  0  0  0  0  0  0  0  0
   -0.1156   15.8286   18.8771 C   0  0  0  0  0  0  0  0  0  0  0  0
   -0.1631   14.5140   19.3469 C   0  0  0  0  0  0  0  0  0  0  0  0
    0.6701   14.1126   20.3908 C   0  0  0  0  0  0  0  0  0  0  0  0
    1.5496   15.0290   20.9603 C   0  0  0  0  0  0  0  0  0  0  0  0
    1.5457   16.3103   20.4301 C   0  0  0  0  0  0  0  0  0  0  0  0
    0.7479   16.7175   19.4148 N   0  0  0  0  0  0  0  0  0  0  0  0
   -2.3362   19.4909   15.6221 C   0  0  0  0  0  0  0  0  0  0  0  0
   -1.9386   18.9203   16.9057 N   0  0  0  0  0  0  0  0  0  0  0  0
   -0.5153   18.4987   16.9041 C   0  0  0  0  0  0  0  0  0  0  0  0
   -0.2998   16.9784   16.7423 C   0  0  0  0  0  0  0  0  0  0  0  0
   -0.9649   16.2168   17.8222 N   0  0  0  0  0  0  0  0  0  0  0  0
   -2.2132   16.8440   18.3238 C   0  0  0  0  0  0  0  0  0  0  0  0
   -2.8291   17.7949   17.2718 C   0  0  0  0  0  0  0  0  0  0  0  0
    7.4191   20.1005   22.2236 C   0  0  0  0  0  0  0  0  0  0  0  0
    6.5918   20.9566   21.2971 C   0  0  0  0  0  0  0  0  0  0  0  0
    7.2125   21.8573   20.4209 C   0  0  0  0  0  0  0  0  0  0  0  0
    6.4499   22.6386   19.5517 C   0  0  0  0  0  0  0  0  0  0  0  0
    5.0612   22.5253   19.5479 C   0  0  0  0  0  0  0  0  0  0  0  0
    4.4340   21.6311   20.4131 C   0  0  0  0  0  0  0  0  0  0  0  0
    5.1948   20.8497   21.2841 C   0  0  0  0  0  0  0  0  0  0  0  0
 17 18  1  0  0  0
 18 19  1  0  0  0
 19 20  1  0  0  0
 20 21  1  0  0  0
 21 11  1  0  0  0
 11 12  2  0  0  0
 12 13  1  0  0  0
 13 14  2  0  0  0
 14 10  1  0  0  0
 10  1  1  0  0  0
  1  2  1  0  0  0
  2  3  2  0  0  0
  2  4  1  0  0  0
  4  5  1  0  0  0
  5  6  1  0  0  0
  6  7  1  0  0  0
  7 24  1  0  0  0
 24 25  1  0  0  0
 25 26  2  0  0  0
 26 27  1  0  0  0
 27 28  2  0  0  0
 28 29  1  0  0  0
 29 30  2  0  0  0
  7  8  1  0  0  0
 14 15  1  0  0  0
 15 16  2  0  0  0
 21 22  1  0  0  0
 22 23  1  0  0  0
 23 18  1  0  0  0
 16 11  1  0  0  0
  8  4  1  0  0  0
 30 25  1  0  0  0
  1  9  1  0  0  0
M  END
> <minimizedAffinity>
-2.27990

$$$$
OCNT-2311003


 25 28  0  0  0  0  0  0  0  0999 V2000
    3.5442   14.6995   21.7124 O   0  0  0  0  0  0  0  0  0  0  0  0
    2.5221   15.2632   22.0902 C   0  0  0  0  0  0  0  0  0  0  0  0
    2.3339   16.6395   22.0909 N   0  0  0  0  0  0  0  0  0  0  0  0
    1.4452   16.9758   22.4275 H   0  0  0  0  0  0  0  0  0  0  0  0
    1.3666   14.4899   22.5933 C   0  0  0  0  0  0  0  0  0  0  0  0
    0.8099   13.3238   22.0879 C   0  0  0  0  0  0  0  0  0  0  0  0
   -0.2424   13.0112   22.9151 N   0  0  0  0  0  0  0  0  0  0  0  0
   -1.1309   11.9397   22.8525 C   0  0  0  0  0  0  0  0  0  0  0  0
   -2.0954   11.8356   23.7829 C   0  0  0  0  0  0  0  0  0  0  0  0
   -2.1794   12.8476   24.8262 C   0  0  0  0  0  0  0  0  0  0  0  0
   -1.3146   13.8801   24.8773 C   0  0  0  0  0  0  0  0  0  0  0  0
   -0.2921   13.9931   23.8935 C   0  0  0  0  0  0  0  0  0  0  0  0
    0.6575   14.8841   23.7209 N   0  0  0  0  0  0  0  0  0  0  0  0
    3.2423   17.6348   21.6744 C   0  0  0  0  0  0  0  0  0  0  0  0
    4.1850   18.0703   22.6110 C   0  0  0  0  0  0  0  0  0  0  0  0
    5.1223   19.0554   22.2777 C   0  0  0  0  0  0  0  0  0  0  0  0
    5.1428   19.6312   21.0007 C   0  0  0  0  0  0  0  0  0  0  0  0
    4.1967   19.1916   20.0668 C   0  0  0  0  0  0  0  0  0  0  0  0
    3.2574   18.2041   20.4016 C   0  0  0  0  0  0  0  0  0  0  0  0
    6.1375   20.6562   20.6938 C   0  0  0  0  0  0  0  0  0  0  0  0
    5.9400   21.8013   20.0641 N   0  0  0  0  0  0  0  0  0  0  0  0
    7.1559   22.4362   20.0057 N   0  0  0  0  0  0  0  0  0  0  0  0
    8.0974   21.7083   20.5849 N   0  0  0  0  0  0  0  0  0  0  0  0
    7.4686   20.6061   21.0114 N   0  0  0  0  0  0  0  0  0  0  0  0
    7.9953   19.8908   21.4933 H   0  0  0  0  0  0  0  0  0  0  0  0
  1  2  2  0  0  0
  2  3  1  0  0  0
  3 14  1  0  0  0
 14 15  1  0  0  0
 15 16  2  0  0  0
 16 17  1  0  0  0
 17 20  1  0  0  0
 20 21  2  0  0  0
 21 22  1  0  0  0
 22 23  2  0  0  0
 23 24  1  0  0  0
 17 18  2  0  0  0
 18 19  1  0  0  0
  2  5  1  0  0  0
  5  6  2  0  0  0
  6  7  1  0  0  0
  7  8  1  0  0  0
  8  9  2  0  0  0
  9 10  1  0  0  0
 10 11  2  0  0  0
 11 12  1  0  0  0
 12 13  2  0  0  0
 19 14  2  0  0  0
 13  5  1  0  0  0
 24 20  1  0  0  0
 12  7  1  0  0  0
  3  4  1  0  0  0
 24 25  1  0  0  0
M  END
> <minimizedAffinity>
-1.96567

$$$$
OCNT-2311017


 22 23  0  0  0  0  0  0  0  0999 V2000
    1.2147   16.8012   19.8091 C   0  0  0  0  0  0  0  0  0  0  0  0
    1.7832   17.9772   19.2971 C   0  0  0  0  0  0  0  0  0  0  0  0
    2.9763   18.4722   19.8258 C   0  0  0  0  0  0  0  0  0  0  0  0
    3.6131   17.8013   20.8746 C   0  0  0  0  0  0  0  0  0  0  0  0
    3.0655   16.6057   21.3627 C   0  0  0  0  0  0  0  0  0  0  0  0
    1.8665   16.0832   20.8284 C   0  0  0  0  0  0  0  0  0  0  0  0
    4.8843   18.3682   21.4060 C   0  0  0  0  0  0  0  0  0  0  0  0
    5.6402   17.6604   22.0627 O   0  0  0  0  0  0  0  0  0  0  0  0
    5.1484   19.6847   21.0875 N   0  0  0  0  0  0  0  0  0  0  0  0
    4.5692   20.1789   20.4182 H   0  0  0  0  0  0  0  0  0  0  0  0
    6.3408   20.3522   21.5199 C   0  0  0  0  0  0  0  0  0  0  0  0
    6.2473   21.5984   22.3609 C   0  0  0  0  0  0  0  0  0  0  0  0
    6.7118   21.6891   20.9448 C   0  0  0  0  0  0  0  0  0  0  0  0
    5.8388   22.2402   20.0221 F   0  0  0  0  0  0  0  0  0  0  0  0
    1.3341   14.7715   21.3506 C   0  0  0  0  0  0  0  0  0  0  0  0
    0.0548   14.8627   21.8016 F   0  0  0  0  0  0  0  0  0  0  0  0
    1.3613   13.7655   20.4363 F   0  0  0  0  0  0  0  0  0  0  0  0
    2.0567   14.3075   22.4123 F   0  0  0  0  0  0  0  0  0  0  0  0
   -0.0643   16.3680   19.2009 C   0  0  0  0  0  0  0  0  0  0  0  0
   -0.2463   15.2616   18.7254 O   0  0  0  0  0  0  0  0  0  0  0  0
   -1.4333   17.7323   17.8982 C   0  0  0  0  0  0  0  0  0  0  0  0
   -0.9226   17.4124   19.1937 O   0  0  0  0  0  0  0  0  0  0  0  0
 21 22  1  0  0  0
 22 19  1  0  0  0
 19 20  2  0  0  0
 19  1  1  0  0  0
  1  2  1  0  0  0
  2  3  2  0  0  0
  3  4  1  0  0  0
  4  7  1  0  0  0
  7  8  2  0  0  0
  7  9  1  0  0  0
  9 11  1  0  0  0
 11 12  1  0  0  0
 12 13  1  0  0  0
 13 14  1  0  0  0
  4  5  2  0  0  0
  5  6  1  0  0  0
  6 15  1  0  0  0
 15 16  1  0  0  0
 15 17  1  0  0  0
 15 18  1  0  0  0
  6  1  2  0  0  0
 13 11  1  0  0  0
  9 10  1  0  0  0
M  END
> <minimizedAffinity>
-10.26774

$$$$
OCNT-2311021


 24 26  0  0  0  0  0  0  0  0999 V2000
    4.0426   17.7785   21.2183 C   0  0  0  0  0  0  0  0  0  0  0  0
    2.9709   18.0827   20.3674 C   0  0  0  0  0  0  0  0  0  0  0  0
    1.9142   17.1833   20.1959 C   0  0  0  0  0  0  0  0  0  0  0  0
    1.9059   15.9565   20.8715 C   0  0  0  0  0  0  0  0  0  0  0  0
    2.9669   15.6533   21.7329 C   0  0  0  0  0  0  0  0  0  0  0  0
    4.0237   16.5544   21.9023 C   0  0  0  0  0  0  0  0  0  0  0  0
    7.3058   21.9571   20.7394 C   0  0  0  0  0  0  0  0  0  0  0  0
    6.6559   20.6928   21.1852 C   0  0  0  0  0  0  0  0  0  0  0  0
    7.0259   19.8535   22.2134 C   0  0  0  0  0  0  0  0  0  0  0  0
    6.1496   18.7362   22.3365 C   0  0  0  0  0  0  0  0  0  0  0  0
    5.1365   18.7439   21.3949 C   0  0  0  0  0  0  0  0  0  0  0  0
    5.2582   20.1244   20.3816 S   0  0  0  0  0  0  0  0  0  0  0  0
    0.7511   15.0038   20.7004 C   0  0  0  0  0  0  0  0  0  0  0  0
   -0.1359   15.4594   19.6543 N   0  0  0  0  0  0  0  0  0  0  0  0
   -0.5296   14.6315   18.6257 C   0  0  0  0  0  0  0  0  0  0  0  0
   -0.2551   13.4380   18.5719 O   0  0  0  0  0  0  0  0  0  0  0  0
   -0.2447   16.4575   19.5395 H   0  0  0  0  0  0  0  0  0  0  0  0
   -1.3458   15.3556   17.5740 C   0  0  0  0  0  0  0  0  0  0  0  0
   -0.4784   16.2775   16.7171 C   0  0  0  0  0  0  0  0  0  0  0  0
   -0.7359   17.7529   16.9910 C   0  0  0  0  0  0  0  0  0  0  0  0
   -1.2999   17.9483   18.2951 O   0  0  0  0  0  0  0  0  0  0  0  0
   -0.4186   18.8606   18.9533 C   0  0  0  0  0  0  0  0  0  0  0  0
    0.3065   19.5542   17.8317 C   0  0  0  0  0  0  0  0  0  0  0  0
    0.4744   18.5112   16.8741 O   0  0  0  0  0  0  0  0  0  0  0  0
  7  8  1  0  0  0
  8  9  2  0  0  0
  9 10  1  0  0  0
 10 11  2  0  0  0
 11  1  1  0  0  0
  1  2  1  0  0  0
  2  3  2  0  0  0
  3  4  1  0  0  0
  4 13  1  0  0  0
 13 14  1  0  0  0
 14 15  1  0  0  0
 15 16  2  0  0  0
 15 18  1  0  0  0
 18 19  1  0  0  0
 19 20  1  0  0  0
 20 21  1  0  0  0
 21 22  1  0  0  0
 22 23  1  0  0  0
 23 24  1  0  0  0
  4  5  2  0  0  0
  5  6  1  0  0  0
 11 12  1  0  0  0
 12  8  1  0  0  0
  6  1  2  0  0  0
 24 20  1  0  0  0
 14 17  1  0  0  0
M  END
> <minimizedAffinity>
-7.82386

$$$$
