OCNT-2313198


 26 29  0  0  0  0  0  0  0  0999 V2000
    2.8629   14.5043   22.2439 O   0  0  0  0  0  0  0  0  0  0  0  0
    2.6019   15.5505   21.6575 C   0  0  0  0  0  0  0  0  0  0  0  0
    3.3004   16.7202   21.9075 N   0  0  0  0  0  0  0  0  0  0  0  0
    2.9451   17.5928   21.5470 H   0  0  0  0  0  0  0  0  0  0  0  0
    1.5394   15.6470   20.6560 C   0  0  0  0  0  0  0  0  0  0  0  0
    0.6123   14.6933   20.2944 C   0  0  0  0  0  0  0  0  0  0  0  0
   -0.1938   15.2113   19.3275 O   0  0  0  0  0  0  0  0  0  0  0  0
    0.2779   16.4843   19.1383 C   0  0  0  0  0  0  0  0  0  0  0  0
    1.3049   16.7891   19.9064 N   0  0  0  0  0  0  0  0  0  0  0  0
   -0.4044   17.3037   18.1407 C   0  0  0  0  0  0  0  0  0  0  0  0
    0.3526   18.0711   17.2417 C   0  0  0  0  0  0  0  0  0  0  0  0
   -0.2705   18.8651   16.2756 C   0  0  0  0  0  0  0  0  0  0  0  0
   -1.6605   18.9021   16.1958 C   0  0  0  0  0  0  0  0  0  0  0  0
   -2.4277   18.1467   17.0803 C   0  0  0  0  0  0  0  0  0  0  0  0
   -1.8037   17.3523   18.0469 C   0  0  0  0  0  0  0  0  0  0  0  0
    4.2966   16.7919   22.9613 C   0  0  0  0  0  0  0  0  0  0  0  0
    5.1616   18.0565   22.9445 C   0  0  0  0  0  0  0  0  0  0  0  0
    6.4219   17.9368   22.1039 C   0  0  0  0  0  0  0  0  0  0  0  0
    6.6951   19.3851   21.7771 C   0  0  0  0  0  0  0  0  0  0  0  0
    5.2876   19.9400   21.5305 C   0  0  0  0  0  0  0  0  0  0  0  0
    5.1433   21.4106   21.9441 C   0  0  0  0  0  0  0  0  0  0  0  0
    5.4217   22.3240   20.7623 C   0  0  0  0  0  0  0  0  0  0  0  0
    4.5325   22.1117   19.6645 O   0  0  0  0  0  0  0  0  0  0  0  0
    3.8987   20.8320   19.6359 C   0  0  0  0  0  0  0  0  0  0  0  0
    4.8476   19.7241   20.0687 C   0  0  0  0  0  0  0  0  0  0  0  0
    4.4118   19.1489   22.3705 O   0  0  0  0  0  0  0  0  0  0  0  0
  1  2  2  0  0  0
  2  3  1  0  0  0
  3 16  1  0  0  0
 16 17  1  0  0  0
 17 18  1  0  0  0
 18 19  1  0  0  0
 19 20  1  0  0  0
 20 21  1  0  0  0
 21 22  1  0  0  0
 22 23  1  0  0  0
 23 24  1  0  0  0
 24 25  1  0  0  0
 20 26  1  0  0  0
  2  5  1  0  0  0
  5  6  2  0  0  0
  6  7  1  0  0  0
  7  8  1  0  0  0
  8 10  1  0  0  0
 10 11  2  0  0  0
 11 12  1  0  0  0
 12 13  2  0  0  0
 13 14  1  0  0  0
 14 15  2  0  0  0
  8  9  2  0  0  0
 26 17  1  0  0  0
  9  5  1  0  0  0
 25 20  1  0  0  0
 15 10  1  0  0  0
  3  4  1  0  0  0
M  END
> <minimizedAffinity>
-7.12415

$$$$
OCNT-2313220


 26 30  0  0  0  0  0  0  0  0999 V2000
   -0.5237   14.2531   19.5860 O   0  0  0  0  0  0  0  0  0  0  0  0
    0.3196   15.1167   19.8201 C   0  0  0  0  0  0  0  0  0  0  0  0
    0.3130   16.3660   19.0054 C   0  0  0  0  0  0  0  0  0  0  0  0
   -0.6545   16.4946   17.9965 C   0  0  0  0  0  0  0  0  0  0  0  0
   -0.7022   17.6428   17.2110 C   0  0  0  0  0  0  0  0  0  0  0  0
    0.2152   18.6649   17.4310 C   0  0  0  0  0  0  0  0  0  0  0  0
    1.1843   18.5473   18.4339 C   0  0  0  0  0  0  0  0  0  0  0  0
    1.2416   17.3969   19.2275 C   0  0  0  0  0  0  0  0  0  0  0  0
    2.1826   17.1903   20.2629 N   0  0  0  0  0  0  0  0  0  0  0  0
    3.2298   17.9235   20.7950 C   0  0  0  0  0  0  0  0  0  0  0  0
    3.7891   17.2554   21.7809 N   0  0  0  0  0  0  0  0  0  0  0  0
    3.1282   16.0710   21.9228 N   0  0  0  0  0  0  0  0  0  0  0  0
    2.1787   16.0277   21.0157 C   0  0  0  0  0  0  0  0  0  0  0  0
    1.2804   14.9948   20.8143 N   0  0  0  0  0  0  0  0  0  0  0  0
    3.7832   19.4803   20.2768 S   0  0  0  0  0  0  0  0  0  0  0  0
    5.2633   19.7213   21.2939 C   0  0  0  0  0  0  0  0  0  0  0  0
    5.6569   21.1667   21.3051 C   0  0  0  0  0  0  0  0  0  0  0  0
    6.7947   21.6300   22.1812 C   0  0  0  0  0  0  0  0  0  0  0  0
    6.9534   21.6293   20.6863 C   0  0  0  0  0  0  0  0  0  0  0  0
    1.3565   13.7617   21.5903 C   0  0  0  0  0  0  0  0  0  0  0  0
    0.2795   13.6872   22.6495 C   0  0  0  0  0  0  0  0  0  0  0  0
    0.0208   14.7851   23.4827 C   0  0  0  0  0  0  0  0  0  0  0  0
   -0.9601   14.7078   24.4728 C   0  0  0  0  0  0  0  0  0  0  0  0
   -1.6884   13.5320   24.6440 C   0  0  0  0  0  0  0  0  0  0  0  0
   -1.4342   12.4313   23.8284 C   0  0  0  0  0  0  0  0  0  0  0  0
   -0.4536   12.5065   22.8380 C   0  0  0  0  0  0  0  0  0  0  0  0
  1  2  2  0  0  0
  2  3  1  0  0  0
  3  4  2  0  0  0
  4  5  1  0  0  0
  5  6  2  0  0  0
  6  7  1  0  0  0
  7  8  2  0  0  0
  8  9  1  0  0  0
  9 10  1  0  0  0
 10 15  1  0  0  0
 15 16  1  0  0  0
 16 17  1  0  0  0
 17 18  1  0  0  0
 18 19  1  0  0  0
 10 11  2  0  0  0
 11 12  1  0  0  0
 12 13  2  0  0  0
 13 14  1  0  0  0
 14 20  1  0  0  0
 20 21  1  0  0  0
 21 22  2  0  0  0
 22 23  1  0  0  0
 23 24  2  0  0  0
 24 25  1  0  0  0
 25 26  2  0  0  0
 14  2  1  0  0  0
 26 21  1  0  0  0
  8  3  1  0  0  0
 13  9  1  0  0  0
 19 17  1  0  0  0
M  END
> <minimizedAffinity>
-9.82778

$$$$
OCNT-2313221


 27 29  0  0  0  0  0  0  0  0999 V2000
    3.1153   15.6263   22.1262 N   0  0  0  0  0  0  0  0  0  0  0  0
    3.5591   14.7352   22.3308 H   0  0  0  0  0  0  0  0  0  0  0  0
    5.9605   18.7657   22.1640 C   0  0  0  0  0  0  0  0  0  0  0  0
    4.8450   18.8301   23.0052 C   0  0  0  0  0  0  0  0  0  0  0  0
    3.8909   17.8060   23.0029 C   0  0  0  0  0  0  0  0  0  0  0  0
    4.0283   16.6963   22.1636 C   0  0  0  0  0  0  0  0  0  0  0  0
    5.1504   16.6388   21.3254 C   0  0  0  0  0  0  0  0  0  0  0  0
    6.1077   17.6577   21.3246 C   0  0  0  0  0  0  0  0  0  0  0  0
    7.0004   19.8583   22.1826 C   0  0  0  0  0  0  0  0  0  0  0  0
    6.7648   20.8700   21.0648 C   0  0  0  0  0  0  0  0  0  0  0  0
    4.7675   21.9609   20.2572 N   0  0  0  0  0  0  0  0  0  0  0  0
    5.5598   21.7367   21.3454 C   0  0  0  0  0  0  0  0  0  0  0  0
    5.2833   22.2205   22.4352 O   0  0  0  0  0  0  0  0  0  0  0  0
    3.9196   22.4945   20.4007 H   0  0  0  0  0  0  0  0  0  0  0  0
    4.8916   21.4759   19.3797 H   0  0  0  0  0  0  0  0  0  0  0  0
    2.0067   15.3846   21.3081 C   0  0  0  0  0  0  0  0  0  0  0  0
    1.2932   14.2064   21.3640 C   0  0  0  0  0  0  0  0  0  0  0  0
    0.2449   14.0818   20.4862 C   0  0  0  0  0  0  0  0  0  0  0  0
   -0.0951   15.0312   19.6010 N   0  0  0  0  0  0  0  0  0  0  0  0
    0.6653   16.1427   19.5956 C   0  0  0  0  0  0  0  0  0  0  0  0
    1.7154   16.3472   20.4167 N   0  0  0  0  0  0  0  0  0  0  0  0
    0.3291   17.2064   18.6257 C   0  0  0  0  0  0  0  0  0  0  0  0
   -0.6228   17.0006   17.6075 C   0  0  0  0  0  0  0  0  0  0  0  0
   -0.9432   18.0056   16.6885 C   0  0  0  0  0  0  0  0  0  0  0  0
   -0.3171   19.2456   16.7661 C   0  0  0  0  0  0  0  0  0  0  0  0
    0.6273   19.4805   17.7603 C   0  0  0  0  0  0  0  0  0  0  0  0
    0.9448   18.4727   18.6771 C   0  0  0  0  0  0  0  0  0  0  0  0
 11 12  1  0  0  0
 12 13  2  0  0  0
 12 10  1  0  0  0
 10  9  1  0  0  0
  9  3  1  0  0  0
  3  4  1  0  0  0
  4  5  2  0  0  0
  5  6  1  0  0  0
  6  1  1  0  0  0
  1 16  1  0  0  0
 16 17  1  0  0  0
 17 18  2  0  0  0
 18 19  1  0  0  0
 19 20  2  0  0  0
 20 22  1  0  0  0
 22 23  2  0  0  0
 23 24  1  0  0  0
 24 25  2  0  0  0
 25 26  1  0  0  0
 26 27  2  0  0  0
 20 21  1  0  0  0
  6  7  2  0  0  0
  7  8  1  0  0  0
  8  3  2  0  0  0
 21 16  2  0  0  0
 27 22  1  0  0  0
 11 14  1  0  0  0
 11 15  1  0  0  0
  1  2  1  0  0  0
M  END
> <minimizedAffinity>
-9.53949

$$$$
OCNT-2313224


 22 24  0  0  0  0  0  0  0  0999 V2000
    2.5320   18.3555   19.8194 C   0  0  0  0  0  0  0  0  0  0  0  0
    2.5375   17.3051   20.5738 N   0  0  0  0  0  0  0  0  0  0  0  0
    1.6082   16.2922   20.2735 C   0  0  0  0  0  0  0  0  0  0  0  0
    1.5950   15.1461   21.0756 C   0  0  0  0  0  0  0  0  0  0  0  0
    0.6936   14.1088   20.8235 C   0  0  0  0  0  0  0  0  0  0  0  0
   -0.2035   14.2135   19.7622 C   0  0  0  0  0  0  0  0  0  0  0  0
   -0.1969   15.3516   18.9587 C   0  0  0  0  0  0  0  0  0  0  0  0
   -1.0746   15.4149   17.9484 F   0  0  0  0  0  0  0  0  0  0  0  0
    0.7016   16.3857   19.2100 C   0  0  0  0  0  0  0  0  0  0  0  0
    0.7440   17.6069   18.3865 C   0  0  0  0  0  0  0  0  0  0  0  0
    0.0022   17.8002   17.4331 O   0  0  0  0  0  0  0  0  0  0  0  0
    1.6836   18.5305   18.7616 N   0  0  0  0  0  0  0  0  0  0  0  0
    1.7495   19.3868   18.2241 H   0  0  0  0  0  0  0  0  0  0  0  0
    5.0967   20.5365   20.8601 C   0  0  0  0  0  0  0  0  0  0  0  0
    4.5186   19.3518   20.9354 N   0  0  0  0  0  0  0  0  0  0  0  0
    3.4524   19.4433   20.0564 C   0  0  0  0  0  0  0  0  0  0  0  0
    3.4390   20.6938   19.4868 C   0  0  0  0  0  0  0  0  0  0  0  0
    4.4843   21.4035   19.9912 O   0  0  0  0  0  0  0  0  0  0  0  0
    5.8802   21.9897   22.7236 C   0  0  0  0  0  0  0  0  0  0  0  0
    6.3120   21.0497   21.5858 C   0  0  0  0  0  0  0  0  0  0  0  0
    7.1044   19.8754   22.1875 C   0  0  0  0  0  0  0  0  0  0  0  0
    7.2212   21.8093   20.6056 C   0  0  0  0  0  0  0  0  0  0  0  0
 19 20  1  0  0  0
 20 21  1  0  0  0
 20 22  1  0  0  0
 20 14  1  0  0  0
 14 15  2  0  0  0
 15 16  1  0  0  0
 16  1  1  0  0  0
  1  2  2  0  0  0
  2  3  1  0  0  0
  3  4  2  0  0  0
  4  5  1  0  0  0
  5  6  2  0  0  0
  6  7  1  0  0  0
  7  8  1  0  0  0
  7  9  2  0  0  0
  9 10  1  0  0  0
 10 11  2  0  0  0
 10 12  1  0  0  0
 16 17  2  0  0  0
 17 18  1  0  0  0
 18 14  1  0  0  0
 12  1  1  0  0  0
  9  3  1  0  0  0
 12 13  1  0  0  0
M  END
> <minimizedAffinity>
-11.42301

$$$$
OCNT-2313234


 23 25  0  0  0  0  0  0  0  0999 V2000
    4.2689   15.6560   21.6695 O   0  0  0  0  0  0  0  0  0  0  0  0
    3.7829   16.7714   21.8295 C   0  0  0  0  0  0  0  0  0  0  0  0
    2.5725   17.2181   21.3343 N   0  0  0  0  0  0  0  0  0  0  0  0
    2.3570   18.1761   21.5829 H   0  0  0  0  0  0  0  0  0  0  0  0
    1.6317   16.5115   20.5454 C   0  0  0  0  0  0  0  0  0  0  0  0
    1.2838   15.1836   20.8014 C   0  0  0  0  0  0  0  0  0  0  0  0
    0.3920   14.4665   20.0779 N   0  0  0  0  0  0  0  0  0  0  0  0
   -0.1886   15.1012   19.0411 C   0  0  0  0  0  0  0  0  0  0  0  0
    0.0673   16.4217   18.6764 C   0  0  0  0  0  0  0  0  0  0  0  0
   -0.5881   17.0032   17.5755 C   0  0  0  0  0  0  0  0  0  0  0  0
   -0.3337   18.3218   17.2100 C   0  0  0  0  0  0  0  0  0  0  0  0
    0.5773   19.0714   17.9403 C   0  0  0  0  0  0  0  0  0  0  0  0
    1.2345   18.5028   19.0369 C   0  0  0  0  0  0  0  0  0  0  0  0
    1.0020   17.1607   19.4413 C   0  0  0  0  0  0  0  0  0  0  0  0
    4.5249   17.8354   22.6459 C   0  0  0  0  0  0  0  0  0  0  0  0
    5.7794   18.1599   22.0473 O   0  0  0  0  0  0  0  0  0  0  0  0
    5.9447   19.4467   21.6133 C   0  0  0  0  0  0  0  0  0  0  0  0
    7.0999   20.2185   21.7552 C   0  0  0  0  0  0  0  0  0  0  0  0
    7.1360   21.5277   21.2635 C   0  0  0  0  0  0  0  0  0  0  0  0
    6.0194   22.0698   20.6288 C   0  0  0  0  0  0  0  0  0  0  0  0
    4.8685   21.2992   20.4880 C   0  0  0  0  0  0  0  0  0  0  0  0
    3.4865   21.9618   19.7058 Cl  0  0  0  0  0  0  0  0  0  0  0  0
    4.8278   19.9943   20.9764 C   0  0  0  0  0  0  0  0  0  0  0  0
  1  2  2  0  0  0
  2 15  1  0  0  0
 15 16  1  0  0  0
 16 17  1  0  0  0
 17 18  2  0  0  0
 18 19  1  0  0  0
 19 20  2  0  0  0
 20 21  1  0  0  0
 21 22  1  0  0  0
 21 23  2  0  0  0
  2  3  1  0  0  0
  3  5  1  0  0  0
  5  6  1  0  0  0
  6  7  2  0  0  0
  7  8  1  0  0  0
  8  9  2  0  0  0
  9 10  1  0  0  0
 10 11  2  0  0  0
 11 12  1  0  0  0
 12 13  2  0  0  0
 13 14  1  0  0  0
 23 17  1  0  0  0
 14  5  2  0  0  0
 14  9  1  0  0  0
  3  4  1  0  0  0
M  END
> <minimizedAffinity>
-11.38765

$$$$
OCNT-2313241


 27 29  0  0  0  0  0  0  0  0999 V2000
    2.3667   15.7473   21.2059 C   0  0  0  0  0  0  0  0  0  0  0  0
    2.1088   14.6546   22.0380 C   0  0  0  0  0  0  0  0  0  0  0  0
    0.9555   13.8971   21.8507 C   0  0  0  0  0  0  0  0  0  0  0  0
    0.0638   14.2200   20.8235 C   0  0  0  0  0  0  0  0  0  0  0  0
    0.3098   15.2988   19.9660 C   0  0  0  0  0  0  0  0  0  0  0  0
    1.4755   16.0553   20.1669 C   0  0  0  0  0  0  0  0  0  0  0  0
    3.5543   17.8482   21.0182 N   0  0  0  0  0  0  0  0  0  0  0  0
    3.6127   16.5339   21.4322 C   0  0  0  0  0  0  0  0  0  0  0  0
    4.5582   15.9817   21.9819 O   0  0  0  0  0  0  0  0  0  0  0  0
    2.6665   18.2164   20.6927 H   0  0  0  0  0  0  0  0  0  0  0  0
    4.5277   19.8433   20.0875 C   0  0  0  0  0  0  0  0  0  0  0  0
    5.5065   20.8409   20.0741 C   0  0  0  0  0  0  0  0  0  0  0  0
    6.5240   20.8231   21.0282 C   0  0  0  0  0  0  0  0  0  0  0  0
    7.7292   22.0526   21.0098 Cl  0  0  0  0  0  0  0  0  0  0  0  0
    6.5771   19.8218   21.9932 C   0  0  0  0  0  0  0  0  0  0  0  0
    5.6023   18.8216   22.0120 C   0  0  0  0  0  0  0  0  0  0  0  0
    4.5737   18.8253   21.0672 C   0  0  0  0  0  0  0  0  0  0  0  0
    2.3395   20.5650   19.4582 C   0  0  0  0  0  0  0  0  0  0  0  0
    3.4805   19.7553   19.1971 O   0  0  0  0  0  0  0  0  0  0  0  0
   -0.5246   15.6425   18.8882 N   0  0  0  0  0  0  0  0  0  0  0  0
   -0.7662   14.8535   18.2954 H   0  0  0  0  0  0  0  0  0  0  0  0
   -0.6228   16.8037   18.1202 C   0  0  0  0  0  0  0  0  0  0  0  0
    0.4750   17.4767   17.5821 C   0  0  0  0  0  0  0  0  0  0  0  0
    0.3777   18.6149   16.8463 N   0  0  0  0  0  0  0  0  0  0  0  0
   -0.8772   19.0790   16.6814 C   0  0  0  0  0  0  0  0  0  0  0  0
   -1.9743   18.4390   17.2282 C   0  0  0  0  0  0  0  0  0  0  0  0
   -1.8699   17.3016   17.9571 N   0  0  0  0  0  0  0  0  0  0  0  0
 18 19  1  0  0  0
 19 11  1  0  0  0
 11 12  1  0  0  0
 12 13  2  0  0  0
 13 14  1  0  0  0
 13 15  1  0  0  0
 15 16  2  0  0  0
 16 17  1  0  0  0
 17  7  1  0  0  0
  7  8  1  0  0  0
  8  9  2  0  0  0
  8  1  1  0  0  0
  1  2  1  0  0  0
  2  3  2  0  0  0
  3  4  1  0  0  0
  4  5  2  0  0  0
  5 20  1  0  0  0
 20 22  1  0  0  0
 22 23  2  0  0  0
 23 24  1  0  0  0
 24 25  2  0  0  0
 25 26  1  0  0  0
 26 27  2  0  0  0
  5  6  1  0  0  0
 17 11  2  0  0  0
  6  1  2  0  0  0
 27 22  1  0  0  0
  7 10  1  0  0  0
 20 21  1  0  0  0
M  END
> <minimizedAffinity>
-10.09435

$$$$
OCNT-2313250


 26 29  0  0  0  0  0  0  0  0999 V2000
    2.9295   16.7396   20.7143 C   0  0  0  0  0  0  0  0  0  0  0  0
    3.2539   15.9375   21.8110 C   0  0  0  0  0  0  0  0  0  0  0  0
    2.4543   14.8413   22.1546 C   0  0  0  0  0  0  0  0  0  0  0  0
    1.3095   14.5473   21.4105 C   0  0  0  0  0  0  0  0  0  0  0  0
    0.9908   15.3308   20.3002 C   0  0  0  0  0  0  0  0  0  0  0  0
   -0.3975   14.9935   19.3310 Cl  0  0  0  0  0  0  0  0  0  0  0  0
    1.7923   16.4248   19.9584 C   0  0  0  0  0  0  0  0  0  0  0  0
    2.0318   19.4356   19.8344 O   0  0  0  0  0  0  0  0  0  0  0  0
    3.2069   19.1001   19.9091 C   0  0  0  0  0  0  0  0  0  0  0  0
    3.6842   17.8591   20.3041 N   0  0  0  0  0  0  0  0  0  0  0  0
    4.6898   17.7394   20.2985 H   0  0  0  0  0  0  0  0  0  0  0  0
    4.3478   20.0413   19.5421 C   0  0  0  0  0  0  0  0  0  0  0  0
    4.6462   21.0684   20.6307 C   0  0  0  0  0  0  0  0  0  0  0  0
    5.8746   21.9549   20.3587 C   0  0  0  0  0  0  0  0  0  0  0  0
    6.6786   21.7945   21.6497 C   0  0  0  0  0  0  0  0  0  0  0  0
    7.3506   20.4228   21.6889 C   0  0  0  0  0  0  0  0  0  0  0  0
    6.1666   19.4966   21.9700 C   0  0  0  0  0  0  0  0  0  0  0  0
    4.9949   20.4767   22.0045 C   0  0  0  0  0  0  0  0  0  0  0  0
    5.6281   21.6207   22.6288 O   0  0  0  0  0  0  0  0  0  0  0  0
    0.5348   13.4492   21.7083 O   0  0  0  0  0  0  0  0  0  0  0  0
   -0.2395   13.5134   22.8449 C   0  0  0  0  0  0  0  0  0  0  0  0
   -0.9171   12.3542   23.2053 C   0  0  0  0  0  0  0  0  0  0  0  0
   -1.7255   12.3991   24.3265 C   0  0  0  0  0  0  0  0  0  0  0  0
   -1.9012   13.5061   25.0805 N   0  0  0  0  0  0  0  0  0  0  0  0
   -1.2483   14.6219   24.6882 C   0  0  0  0  0  0  0  0  0  0  0  0
   -0.4174   14.6800   23.5832 C   0  0  0  0  0  0  0  0  0  0  0  0
  8  9  2  0  0  0
  9 12  1  0  0  0
 12 13  1  0  0  0
 13 14  1  0  0  0
 14 15  1  0  0  0
 15 16  1  0  0  0
 16 17  1  0  0  0
 17 18  1  0  0  0
 18 19  1  0  0  0
  9 10  1  0  0  0
 10  1  1  0  0  0
  1  2  1  0  0  0
  2  3  2  0  0  0
  3  4  1  0  0  0
  4 20  1  0  0  0
 20 21  1  0  0  0
 21 22  2  0  0  0
 22 23  1  0  0  0
 23 24  2  0  0  0
 24 25  1  0  0  0
 25 26  2  0  0  0
  4  5  2  0  0  0
  5  6  1  0  0  0
  5  7  1  0  0  0
 18 13  1  0  0  0
  7  1  2  0  0  0
 19 15  1  0  0  0
 26 21  1  0  0  0
 10 11  1  0  0  0
M  END
> <minimizedAffinity>
-7.87037

$$$$
OCNT-2313258


 27 31  0  0  0  0  0  0  0  0999 V2000
    0.5700   17.7284   18.8618 C   0  0  0  0  0  0  0  0  0  0  0  0
    1.6953   17.9728   19.5033 N   0  0  0  0  0  0  0  0  0  0  0  0
    1.7358   19.3466   19.5365 C   0  0  0  0  0  0  0  0  0  0  0  0
    0.7080   19.9477   18.9230 N   0  0  0  0  0  0  0  0  0  0  0  0
   -0.0654   18.8783   18.4747 O   0  0  0  0  0  0  0  0  0  0  0  0
    2.8435   20.1120   20.1842 C   0  0  0  0  0  0  0  0  0  0  0  0
    3.4773   21.0913   19.1973 C   0  0  0  0  0  0  0  0  0  0  0  0
    4.4363   21.9321   19.8550 O   0  0  0  0  0  0  0  0  0  0  0  0
    5.2675   21.1994   20.6627 C   0  0  0  0  0  0  0  0  0  0  0  0
    6.4311   21.8295   21.0993 C   0  0  0  0  0  0  0  0  0  0  0  0
    7.3360   21.1372   21.9055 C   0  0  0  0  0  0  0  0  0  0  0  0
    7.0747   19.8170   22.2756 C   0  0  0  0  0  0  0  0  0  0  0  0
    5.9018   19.1908   21.8506 C   0  0  0  0  0  0  0  0  0  0  0  0
    4.9915   19.8866   21.0573 C   0  0  0  0  0  0  0  0  0  0  0  0
    3.8512   19.2159   20.6979 O   0  0  0  0  0  0  0  0  0  0  0  0
   -1.6569   13.7807   16.6624 C   0  0  0  0  0  0  0  0  0  0  0  0
   -0.9428   14.6225   17.5919 N   0  0  0  0  0  0  0  0  0  0  0  0
   -0.6292   15.9352   17.4317 C   0  0  0  0  0  0  0  0  0  0  0  0
    0.0454   16.2965   18.5760 C   0  0  0  0  0  0  0  0  0  0  0  0
    0.1132   15.1226   19.3721 C   0  0  0  0  0  0  0  0  0  0  0  0
   -0.5272   14.1084   18.7620 N   0  0  0  0  0  0  0  0  0  0  0  0
    0.7363   14.9133   20.6743 C   0  0  0  0  0  0  0  0  0  0  0  0
    2.0685   15.2593   20.9017 C   0  0  0  0  0  0  0  0  0  0  0  0
    2.6000   15.0312   22.1603 C   0  0  0  0  0  0  0  0  0  0  0  0
    1.9073   14.4836   23.1813 N   0  0  0  0  0  0  0  0  0  0  0  0
    0.6271   14.1369   22.9301 C   0  0  0  0  0  0  0  0  0  0  0  0
    0.0046   14.3270   21.7090 C   0  0  0  0  0  0  0  0  0  0  0  0
 16 17  1  0  0  0
 17 18  1  0  0  0
 18 19  2  0  0  0
 19  1  1  0  0  0
  1  2  2  0  0  0
  2  3  1  0  0  0
  3  6  1  0  0  0
  6  7  1  0  0  0
  7  8  1  0  0  0
  8  9  1  0  0  0
  9 10  2  0  0  0
 10 11  1  0  0  0
 11 12  2  0  0  0
 12 13  1  0  0  0
 13 14  2  0  0  0
 14 15  1  0  0  0
  3  4  2  0  0  0
  4  5  1  0  0  0
 19 20  1  0  0  0
 20 22  1  0  0  0
 22 23  2  0  0  0
 23 24  1  0  0  0
 24 25  2  0  0  0
 25 26  1  0  0  0
 26 27  2  0  0  0
 20 21  2  0  0  0
 21 17  1  0  0  0
  5  1  1  0  0  0
 27 22  1  0  0  0
 15  6  1  0  0  0
 14  9  1  0  0  0
M  END
> <minimizedAffinity>
-8.90052

$$$$
OCNT-2313300


 23 25  0  0  0  0  0  0  0  0999 V2000
    0.5210   17.0403   19.2319 C   0  0  0  0  0  0  0  0  0  0  0  0
   -0.1101   18.0658   19.4580 O   0  0  0  0  0  0  0  0  0  0  0  0
    1.8521   16.8249   19.5287 N   0  0  0  0  0  0  0  0  0  0  0  0
    2.1650   15.8695   19.4369 H   0  0  0  0  0  0  0  0  0  0  0  0
   -0.1573   14.5495   19.1258 C   0  0  0  0  0  0  0  0  0  0  0  0
   -0.1432   15.8643   18.6560 C   0  0  0  0  0  0  0  0  0  0  0  0
   -0.8664   15.8596   17.4247 C   0  0  0  0  0  0  0  0  0  0  0  0
   -1.3352   14.5872   17.2073 C   0  0  0  0  0  0  0  0  0  0  0  0
   -0.9053   13.8027   18.2399 N   0  0  0  0  0  0  0  0  0  0  0  0
   -1.0789   12.8085   18.3182 H   0  0  0  0  0  0  0  0  0  0  0  0
    0.1520   14.5529   21.6083 C   0  0  0  0  0  0  0  0  0  0  0  0
    0.5054   13.8799   20.2908 C   0  0  0  0  0  0  0  0  0  0  0  0
    2.7845   17.7476   20.0384 C   0  0  0  0  0  0  0  0  0  0  0  0
    3.5058   17.3687   21.1746 C   0  0  0  0  0  0  0  0  0  0  0  0
    4.4589   18.2248   21.7421 C   0  0  0  0  0  0  0  0  0  0  0  0
    4.7100   19.4811   21.1762 C   0  0  0  0  0  0  0  0  0  0  0  0
    3.9906   19.8581   20.0348 C   0  0  0  0  0  0  0  0  0  0  0  0
    3.0380   18.9956   19.4727 C   0  0  0  0  0  0  0  0  0  0  0  0
    5.6784   20.3565   21.7493 N   0  0  0  0  0  0  0  0  0  0  0  0
    6.9848   20.0605   22.0813 C   0  0  0  0  0  0  0  0  0  0  0  0
    7.5231   21.2153   22.5975 C   0  0  0  0  0  0  0  0  0  0  0  0
    6.6014   22.2195   22.5998 N   0  0  0  0  0  0  0  0  0  0  0  0
    5.5131   21.6831   22.0916 C   0  0  0  0  0  0  0  0  0  0  0  0
 11 12  1  0  0  0
 12  5  1  0  0  0
  5  6  2  0  0  0
  6  1  1  0  0  0
  1  2  2  0  0  0
  1  3  1  0  0  0
  3 13  1  0  0  0
 13 14  1  0  0  0
 14 15  2  0  0  0
 15 16  1  0  0  0
 16 19  1  0  0  0
 19 20  1  0  0  0
 20 21  2  0  0  0
 21 22  1  0  0  0
 22 23  2  0  0  0
 16 17  2  0  0  0
 17 18  1  0  0  0
  6  7  1  0  0  0
  7  8  2  0  0  0
  8  9  1  0  0  0
  9  5  1  0  0  0
 18 13  2  0  0  0
 23 19  1  0  0  0
  3  4  1  0  0  0
  9 10  1  0  0  0
M  END
> <minimizedAffinity>
-6.30718

$$$$
OCNT-2313361


 28 31  0  0  0  0  0  0  0  0999 V2000
    2.9395   16.2846   21.7142 C   0  0  0  0  0  0  0  0  0  0  0  0
    3.1200   17.4910   20.9307 N   0  0  0  0  0  0  0  0  0  0  0  0
    2.2144   17.9953   20.0142 C   0  0  0  0  0  0  0  0  0  0  0  0
    2.6786   19.2507   19.6580 C   0  0  0  0  0  0  0  0  0  0  0  0
    3.9334   19.4659   20.2804 C   0  0  0  0  0  0  0  0  0  0  0  0
    4.8658   20.5216   20.2478 C   0  0  0  0  0  0  0  0  0  0  0  0
    6.0597   20.4284   20.9858 C   0  0  0  0  0  0  0  0  0  0  0  0
    6.2992   19.2881   21.7627 C   0  0  0  0  0  0  0  0  0  0  0  0
    5.3831   18.2314   21.8132 C   0  0  0  0  0  0  0  0  0  0  0  0
    4.2028   18.3428   21.0613 C   0  0  0  0  0  0  0  0  0  0  0  0
    0.9924   17.3748   19.5516 C   0  0  0  0  0  0  0  0  0  0  0  0
    0.2428   16.7313   20.2824 O   0  0  0  0  0  0  0  0  0  0  0  0
    0.6881   17.6281   18.2307 N   0  0  0  0  0  0  0  0  0  0  0  0
    1.1822   18.3989   17.7978 H   0  0  0  0  0  0  0  0  0  0  0  0
   -0.5486   17.1309   17.5769 C   0  0  0  0  0  0  0  0  0  0  0  0
   -1.8214   17.9065   18.0317 C   0  0  0  0  0  0  0  0  0  0  0  0
   -1.6031   18.8535   16.8360 C   0  0  0  0  0  0  0  0  0  0  0  0
   -0.8150   17.7147   16.1601 C   0  0  0  0  0  0  0  0  0  0  0  0
   -0.6675   15.5819   17.6781 C   0  0  0  0  0  0  0  0  0  0  0  0
   -1.1080   14.7804   16.7340 N   0  0  0  0  0  0  0  0  0  0  0  0
   -1.0661   13.4944   17.2266 N   0  0  0  0  0  0  0  0  0  0  0  0
   -0.6155   13.5519   18.4588 C   0  0  0  0  0  0  0  0  0  0  0  0
   -0.3479   14.8436   18.7843 N   0  0  0  0  0  0  0  0  0  0  0  0
   -0.0378   15.2190   19.6734 H   0  0  0  0  0  0  0  0  0  0  0  0
    7.0523   21.5645   20.9698 C   0  0  0  0  0  0  0  0  0  0  0  0
    8.2359   21.2306   20.3821 F   0  0  0  0  0  0  0  0  0  0  0  0
    7.3666   21.9952   22.2226 F   0  0  0  0  0  0  0  0  0  0  0  0
    6.6032   22.6619   20.2984 F   0  0  0  0  0  0  0  0  0  0  0  0
  1  2  1  0  0  0
  2  3  1  0  0  0
  3 11  1  0  0  0
 11 12  2  0  0  0
 11 13  1  0  0  0
 13 15  1  0  0  0
 15 19  1  0  0  0
 19 20  2  0  0  0
 20 21  1  0  0  0
 21 22  2  0  0  0
 22 23  1  0  0  0
 15 16  1  0  0  0
 16 17  1  0  0  0
 17 18  1  0  0  0
  3  4  2  0  0  0
  4  5  1  0  0  0
  5  6  2  0  0  0
  6  7  1  0  0  0
  7 25  1  0  0  0
 25 26  1  0  0  0
 25 27  1  0  0  0
 25 28  1  0  0  0
  7  8  2  0  0  0
  8  9  1  0  0  0
  9 10  2  0  0  0
 10  2  1  0  0  0
 18 15  1  0  0  0
 10  5  1  0  0  0
 23 19  1  0  0  0
 13 14  1  0  0  0
 23 24  1  0  0  0
M  END
> <minimizedAffinity>
-8.70097

$$$$
OCNT-2313362


 23 26  0  0  0  0  0  0  0  0999 V2000
    3.6035   16.5138   22.6375 O   0  0  0  0  0  0  0  0  0  0  0  0
    4.0248   17.3494   21.5357 S   0  0  0  0  0  0  0  0  0  0  0  0
    5.0749   16.9550   20.6263 O   0  0  0  0  0  0  0  0  0  0  0  0
    2.5808   17.5384   20.5459 C   0  0  0  0  0  0  0  0  0  0  0  0
    1.5704   16.6589   20.2171 C   0  0  0  0  0  0  0  0  0  0  0  0
    1.3945   15.0376   20.6800 Cl  0  0  0  0  0  0  0  0  0  0  0  0
    0.6968   17.3988   19.4004 C   0  0  0  0  0  0  0  0  0  0  0  0
    1.1249   18.6480   19.2136 N   0  0  0  0  0  0  0  0  0  0  0  0
    2.2939   18.7409   19.9483 O   0  0  0  0  0  0  0  0  0  0  0  0
   -0.6031   16.8496   18.7517 C   0  0  0  0  0  0  0  0  0  0  0  0
   -0.7088   16.7938   17.2484 C   0  0  0  0  0  0  0  0  0  0  0  0
   -0.5741   15.5234   18.0347 C   0  0  0  0  0  0  0  0  0  0  0  0
    4.4186   18.8416   22.2151 N   0  0  0  0  0  0  0  0  0  0  0  0
    4.6938   18.7065   23.1901 H   0  0  0  0  0  0  0  0  0  0  0  0
    5.2766   19.7985   21.4691 C   0  0  0  0  0  0  0  0  0  0  0  0
    6.7388   19.7051   21.9522 C   0  0  0  0  0  0  0  0  0  0  0  0
    7.2326   21.1384   22.0635 C   0  0  0  0  0  0  0  0  0  0  0  0
    6.0059   21.8831   22.5533 C   0  0  0  0  0  0  0  0  0  0  0  0
    4.8273   21.2462   21.8095 C   0  0  0  0  0  0  0  0  0  0  0  0
    4.5327   21.8974   20.4550 C   0  0  0  0  0  0  0  0  0  0  0  0
    5.2814   21.1076   19.4806 N   0  0  0  0  0  0  0  0  0  0  0  0
    5.1179   19.7261   19.9396 C   0  0  0  0  0  0  0  0  0  0  0  0
    4.8908   21.2244   18.5460 H   0  0  0  0  0  0  0  0  0  0  0  0
  1  2  2  0  0  0
  2  3  2  0  0  0
  2 13  1  0  0  0
 15 13  1  0  0  0
 15 16  1  0  0  0
 16 17  1  0  0  0
 17 18  1  0  0  0
 18 19  1  0  0  0
 19 20  1  0  0  0
 20 21  1  0  0  0
 21 22  1  0  0  0
  2  4  1  0  0  0
  4  5  2  0  0  0
  5  6  1  0  0  0
  5  7  1  0  0  0
  7 10  1  0  0  0
 10 11  1  0  0  0
 11 12  1  0  0  0
  7  8  2  0  0  0
  8  9  1  0  0  0
 19 15  1  0  0  0
  9  4  1  0  0  0
 22 15  1  0  0  0
 12 10  1  0  0  0
 13 14  1  0  0  0
 21 23  1  0  0  0
M  END
> <minimizedAffinity>
-7.86888

$$$$
OCNT-2313365


 22 24  0  0  0  0  0  0  0  0999 V2000
   -0.9586   18.1361   16.2927 C   0  0  0  0  0  0  0  0  0  0  0  0
   -0.0967   17.9478   17.5117 C   0  0  0  0  0  0  0  0  0  0  0  0
   -0.0445   16.7193   18.2173 C   0  0  0  0  0  0  0  0  0  0  0  0
   -0.7870   15.5749   17.8458 C   0  0  0  0  0  0  0  0  0  0  0  0
   -0.7001   14.3894   18.5744 C   0  0  0  0  0  0  0  0  0  0  0  0
    0.1287   14.3271   19.6848 C   0  0  0  0  0  0  0  0  0  0  0  0
    0.8665   15.4513   20.0606 C   0  0  0  0  0  0  0  0  0  0  0  0
    0.7988   16.6441   19.3535 C   0  0  0  0  0  0  0  0  0  0  0  0
    1.5417   17.6751   19.7843 N   0  0  0  0  0  0  0  0  0  0  0  0
    1.4682   18.8400   19.0839 C   0  0  0  0  0  0  0  0  0  0  0  0
    0.6774   19.0206   17.9614 C   0  0  0  0  0  0  0  0  0  0  0  0
    2.3162   19.9676   19.6013 C   0  0  0  0  0  0  0  0  0  0  0  0
    1.8692   21.1066   19.6018 O   0  0  0  0  0  0  0  0  0  0  0  0
    3.5526   19.5348   20.0284 N   0  0  0  0  0  0  0  0  0  0  0  0
    3.6972   18.5316   19.9283 H   0  0  0  0  0  0  0  0  0  0  0  0
    4.6017   20.2587   20.5629 C   0  0  0  0  0  0  0  0  0  0  0  0
    5.5199   19.9672   21.5559 C   0  0  0  0  0  0  0  0  0  0  0  0
    5.7234   18.7731   22.4176 C   0  0  0  0  0  0  0  0  0  0  0  0
    6.3248   21.0823   21.6481 N   0  0  0  0  0  0  0  0  0  0  0  0
    7.4442   21.2907   22.5386 C   0  0  0  0  0  0  0  0  0  0  0  0
    5.9936   22.0649   20.7917 N   0  0  0  0  0  0  0  0  0  0  0  0
    4.9498   21.5628   20.1361 C   0  0  0  0  0  0  0  0  0  0  0  0
  1  2  1  0  0  0
  2  3  1  0  0  0
  3  4  2  0  0  0
  4  5  1  0  0  0
  5  6  2  0  0  0
  6  7  1  0  0  0
  7  8  2  0  0  0
  8  9  1  0  0  0
  9 10  2  0  0  0
 10 12  1  0  0  0
 12 13  2  0  0  0
 12 14  1  0  0  0
 14 16  1  0  0  0
 16 17  2  0  0  0
 17 18  1  0  0  0
 17 19  1  0  0  0
 19 20  1  0  0  0
 19 21  1  0  0  0
 21 22  2  0  0  0
 10 11  1  0  0  0
 11  2  2  0  0  0
  8  3  1  0  0  0
 22 16  1  0  0  0
 14 15  1  0  0  0
M  END
> <minimizedAffinity>
-10.16240

$$$$
OCNT-2313366


 21 24  0  0  0  0  0  0  0  0999 V2000
    0.6561   19.3743   17.8871 C   0  0  0  0  0  0  0  0  0  0  0  0
    1.1934   18.4068   18.8973 C   0  0  0  0  0  0  0  0  0  0  0  0
    2.2136   18.8424   19.6688 N   0  0  0  0  0  0  0  0  0  0  0  0
    2.7829   18.0183   20.5933 C   0  0  0  0  0  0  0  0  0  0  0  0
    2.2402   16.7284   20.7033 C   0  0  0  0  0  0  0  0  0  0  0  0
    2.4220   15.5748   21.4957 C   0  0  0  0  0  0  0  0  0  0  0  0
    1.6039   14.5716   21.1582 N   0  0  0  0  0  0  0  0  0  0  0  0
    0.8661   15.1024   20.1554 N   0  0  0  0  0  0  0  0  0  0  0  0
   -0.1636   14.3071   19.5356 C   0  0  0  0  0  0  0  0  0  0  0  0
    1.2039   16.3935   19.8509 C   0  0  0  0  0  0  0  0  0  0  0  0
    0.6435   17.1795   18.9183 N   0  0  0  0  0  0  0  0  0  0  0  0
    3.8516   18.4689   21.3859 N   0  0  0  0  0  0  0  0  0  0  0  0
    4.7781   17.4102   21.8461 C   0  0  0  0  0  0  0  0  0  0  0  0
    6.0429   18.0999   22.3907 C   0  0  0  0  0  0  0  0  0  0  0  0
    5.9901   19.3962   21.6599 C   0  0  0  0  0  0  0  0  0  0  0  0
    6.9799   20.3595   21.5391 C   0  0  0  0  0  0  0  0  0  0  0  0
    6.6757   21.5213   20.8308 C   0  0  0  0  0  0  0  0  0  0  0  0
    5.4010   21.6930   20.2800 C   0  0  0  0  0  0  0  0  0  0  0  0
    5.1284   22.8229   19.6123 F   0  0  0  0  0  0  0  0  0  0  0  0
    4.4089   20.7251   20.4158 C   0  0  0  0  0  0  0  0  0  0  0  0
    4.7148   19.5636   21.1051 C   0  0  0  0  0  0  0  0  0  0  0  0
  1  2  1  0  0  0
  2  3  2  0  0  0
  3  4  1  0  0  0
  4 12  1  0  0  0
 12 13  1  0  0  0
 13 14  1  0  0  0
 14 15  1  0  0  0
 15 16  1  0  0  0
 16 17  2  0  0  0
 17 18  1  0  0  0
 18 19  1  0  0  0
 18 20  2  0  0  0
 20 21  1  0  0  0
  4  5  2  0  0  0
  5  6  1  0  0  0
  6  7  2  0  0  0
  7  8  1  0  0  0
  8  9  1  0  0  0
  8 10  1  0  0  0
 10 11  2  0  0  0
 11  2  1  0  0  0
 21 12  1  0  0  0
 10  5  1  0  0  0
 21 15  2  0  0  0
M  END
> <minimizedAffinity>
-11.62137

$$$$
OCNT-2313367


 28 31  0  0  0  0  0  0  0  0999 V2000
    4.1930   17.9378   21.2982 C   0  0  0  0  0  0  0  0  0  0  0  0
    3.0745   18.0337   20.6043 N   0  0  0  0  0  0  0  0  0  0  0  0
    2.4045   16.8298   20.7272 C   0  0  0  0  0  0  0  0  0  0  0  0
    3.1316   15.9814   21.5503 C   0  0  0  0  0  0  0  0  0  0  0  0
    2.8819   14.6236   22.0887 C   0  0  0  0  0  0  0  0  0  0  0  0
    4.2569   16.6969   21.8855 N   0  0  0  0  0  0  0  0  0  0  0  0
    4.9950   16.3808   22.4969 H   0  0  0  0  0  0  0  0  0  0  0  0
    5.8717   22.4434   19.9577 C   0  0  0  0  0  0  0  0  0  0  0  0
    6.0169   21.2083   20.7963 C   0  0  0  0  0  0  0  0  0  0  0  0
    5.0818   20.1679   20.6923 C   0  0  0  0  0  0  0  0  0  0  0  0
    5.2095   18.9874   21.4433 C   0  0  0  0  0  0  0  0  0  0  0  0
    6.3133   18.8611   22.2986 C   0  0  0  0  0  0  0  0  0  0  0  0
    7.2589   19.8860   22.3980 C   0  0  0  0  0  0  0  0  0  0  0  0
    7.1136   21.0517   21.6475 C   0  0  0  0  0  0  0  0  0  0  0  0
    1.1103   16.5977   20.0757 C   0  0  0  0  0  0  0  0  0  0  0  0
    0.2198   15.9100   20.5748 O   0  0  0  0  0  0  0  0  0  0  0  0
    0.9533   17.2137   18.8481 N   0  0  0  0  0  0  0  0  0  0  0  0
    1.6937   17.8277   18.5400 H   0  0  0  0  0  0  0  0  0  0  0  0
   -0.2825   17.1030   18.0473 C   0  0  0  0  0  0  0  0  0  0  0  0
   -1.4715   17.9580   18.5706 C   0  0  0  0  0  0  0  0  0  0  0  0
   -1.7536   18.3690   17.1128 C   0  0  0  0  0  0  0  0  0  0  0  0
   -0.2839   18.0313   16.7974 C   0  0  0  0  0  0  0  0  0  0  0  0
   -0.6362   15.6081   17.7519 C   0  0  0  0  0  0  0  0  0  0  0  0
   -1.1232   15.1364   16.6256 N   0  0  0  0  0  0  0  0  0  0  0  0
   -1.2766   13.7753   16.7761 N   0  0  0  0  0  0  0  0  0  0  0  0
   -0.8670   13.4572   17.9828 C   0  0  0  0  0  0  0  0  0  0  0  0
   -0.4573   14.5771   18.6335 N   0  0  0  0  0  0  0  0  0  0  0  0
   -0.0437   14.6571   19.5561 H   0  0  0  0  0  0  0  0  0  0  0  0
  8  9  1  0  0  0
  9 10  1  0  0  0
 10 11  2  0  0  0
 11  1  1  0  0  0
  1  2  2  0  0  0
  2  3  1  0  0  0
  3 15  1  0  0  0
 15 16  2  0  0  0
 15 17  1  0  0  0
 17 19  1  0  0  0
 19 23  1  0  0  0
 23 24  2  0  0  0
 24 25  1  0  0  0
 25 26  2  0  0  0
 26 27  1  0  0  0
 19 20  1  0  0  0
 20 21  1  0  0  0
 21 22  1  0  0  0
  3  4  2  0  0  0
  4  5  1  0  0  0
  4  6  1  0  0  0
 11 12  1  0  0  0
 12 13  2  0  0  0
 13 14  1  0  0  0
 14  9  2  0  0  0
  6  1  1  0  0  0
 22 19  1  0  0  0
 27 23  1  0  0  0
 17 18  1  0  0  0
 27 28  1  0  0  0
  6  7  1  0  0  0
M  END
> <minimizedAffinity>
-7.88662

$$$$
OCNT-2313368


 23 26  0  0  0  0  0  0  0  0999 V2000
    1.5994   20.4100   19.5700 O   0  0  0  0  0  0  0  0  0  0  0  0
    1.8069   19.2206   19.3632 C   0  0  0  0  0  0  0  0  0  0  0  0
    2.9400   18.5179   19.7284 N   0  0  0  0  0  0  0  0  0  0  0  0
    3.0222   17.5834   19.3476 H   0  0  0  0  0  0  0  0  0  0  0  0
    4.0362   18.9745   20.4906 C   0  0  0  0  0  0  0  0  0  0  0  0
    4.5374   18.3020   21.6131 C   0  0  0  0  0  0  0  0  0  0  0  0
    5.6361   18.7861   22.3413 C   0  0  0  0  0  0  0  0  0  0  0  0
    6.2072   19.9717   21.8865 C   0  0  0  0  0  0  0  0  0  0  0  0
    7.2564   20.7360   22.3123 N   0  0  0  0  0  0  0  0  0  0  0  0
    7.4377   21.8157   21.5338 N   0  0  0  0  0  0  0  0  0  0  0  0
    6.5100   21.7821   20.5845 N   0  0  0  0  0  0  0  0  0  0  0  0
    5.7441   20.6639   20.7785 C   0  0  0  0  0  0  0  0  0  0  0  0
    4.6451   20.1671   20.0630 C   0  0  0  0  0  0  0  0  0  0  0  0
    7.8769   20.5914   23.0993 H   0  0  0  0  0  0  0  0  0  0  0  0
    0.8458   18.4139   18.6030 C   0  0  0  0  0  0  0  0  0  0  0  0
    0.1340   18.9673   17.5551 C   0  0  0  0  0  0  0  0  0  0  0  0
   -0.8679   17.8453   16.7646 S   0  0  0  0  0  0  0  0  0  0  0  0
   -0.4384   16.5857   17.8537 C   0  0  0  0  0  0  0  0  0  0  0  0
   -0.9232   15.2621   17.8353 C   0  0  0  0  0  0  0  0  0  0  0  0
   -0.4967   14.3675   18.8168 C   0  0  0  0  0  0  0  0  0  0  0  0
    0.3846   14.7784   19.8040 C   0  0  0  0  0  0  0  0  0  0  0  0
    0.8675   16.0909   19.8164 C   0  0  0  0  0  0  0  0  0  0  0  0
    0.4772   17.0247   18.8174 C   0  0  0  0  0  0  0  0  0  0  0  0
  1  2  2  0  0  0
  2  3  1  0  0  0
  3  5  1  0  0  0
  5  6  2  0  0  0
  6  7  1  0  0  0
  7  8  2  0  0  0
  8  9  1  0  0  0
  9 10  1  0  0  0
 10 11  2  0  0  0
 11 12  1  0  0  0
 12 13  2  0  0  0
  2 15  1  0  0  0
 15 16  2  0  0  0
 16 17  1  0  0  0
 17 18  1  0  0  0
 18 19  2  0  0  0
 19 20  1  0  0  0
 20 21  2  0  0  0
 21 22  1  0  0  0
 22 23  2  0  0  0
 13  5  1  0  0  0
 23 15  1  0  0  0
 12  8  1  0  0  0
 23 18  1  0  0  0
  3  4  1  0  0  0
  9 14  1  0  0  0
M  END
> <minimizedAffinity>
-11.13887

$$$$
OCNT-2313402


 22 24  0  0  0  0  0  0  0  0999 V2000
    0.8466   19.2330   18.7939 C   0  0  0  0  0  0  0  0  0  0  0  0
    0.8315   19.6840   17.6551 O   0  0  0  0  0  0  0  0  0  0  0  0
    1.9314   19.3539   19.6424 N   0  0  0  0  0  0  0  0  0  0  0  0
    1.7873   19.1449   20.6229 H   0  0  0  0  0  0  0  0  0  0  0  0
    3.1132   20.1178   19.2587 C   0  0  0  0  0  0  0  0  0  0  0  0
    4.3945   19.3378   19.6030 C   0  0  0  0  0  0  0  0  0  0  0  0
    4.9592   19.7260   20.9674 C   0  0  0  0  0  0  0  0  0  0  0  0
    5.2576   21.1970   21.0130 C   0  0  0  0  0  0  0  0  0  0  0  0
    4.4605   22.0993   20.1166 C   0  0  0  0  0  0  0  0  0  0  0  0
    3.0666   21.5214   19.8938 C   0  0  0  0  0  0  0  0  0  0  0  0
    6.6141   21.6178   21.3754 N   0  0  0  0  0  0  0  0  0  0  0  0
    5.7671   21.7464   22.2734 N   0  0  0  0  0  0  0  0  0  0  0  0
   -0.3186   18.5016   19.4337 C   0  0  0  0  0  0  0  0  0  0  0  0
   -0.0842   16.8084   17.5475 C   0  0  0  0  0  0  0  0  0  0  0  0
   -0.3934   17.0179   19.0358 C   0  0  0  0  0  0  0  0  0  0  0  0
    0.5457   16.1865   19.9015 C   0  0  0  0  0  0  0  0  0  0  0  0
    1.7379   16.7205   20.4207 C   0  0  0  0  0  0  0  0  0  0  0  0
    2.5770   15.9396   21.2176 C   0  0  0  0  0  0  0  0  0  0  0  0
    2.2280   14.6251   21.4989 C   0  0  0  0  0  0  0  0  0  0  0  0
    3.0339   13.8777   22.2646 F   0  0  0  0  0  0  0  0  0  0  0  0
    1.0553   14.0752   20.9982 C   0  0  0  0  0  0  0  0  0  0  0  0
    0.2148   14.8539   20.2009 C   0  0  0  0  0  0  0  0  0  0  0  0
 14 15  1  0  0  0
 15 13  1  0  0  0
 13  1  1  0  0  0
  1  2  2  0  0  0
  1  3  1  0  0  0
  3  5  1  0  0  0
  5  6  1  0  0  0
  6  7  1  0  0  0
  7  8  1  0  0  0
  8  9  1  0  0  0
  9 10  1  0  0  0
  8 11  1  0  0  0
 11 12  2  0  0  0
 15 16  1  0  0  0
 16 17  1  0  0  0
 17 18  2  0  0  0
 18 19  1  0  0  0
 19 20  1  0  0  0
 19 21  2  0  0  0
 21 22  1  0  0  0
 10  5  1  0  0  0
 22 16  2  0  0  0
 12  8  1  0  0  0
  3  4  1  0  0  0
M  END
> <minimizedAffinity>
-10.67416

$$$$
OCNT-2313403


 26 28  0  0  0  0  0  0  0  0999 V2000
   -0.2278   16.1291   20.2661 O   0  0  0  0  0  0  0  0  0  0  0  0
    0.2605   15.1112   19.7951 C   0  0  0  0  0  0  0  0  0  0  0  0
    1.2008   14.3417   20.4194 N   0  0  0  0  0  0  0  0  0  0  0  0
   -0.0704   14.6040   18.5714 N   0  0  0  0  0  0  0  0  0  0  0  0
    1.8131   13.8322   19.8006 H   0  0  0  0  0  0  0  0  0  0  0  0
    0.0511   13.6076   18.4435 H   0  0  0  0  0  0  0  0  0  0  0  0
    1.7721   14.7855   21.6682 C   0  0  0  0  0  0  0  0  0  0  0  0
    2.7138   15.9370   21.4431 C   0  0  0  0  0  0  0  0  0  0  0  0
    2.2919   17.0657   20.7300 C   0  0  0  0  0  0  0  0  0  0  0  0
    3.1545   18.1472   20.5363 C   0  0  0  0  0  0  0  0  0  0  0  0
    4.4568   18.1284   21.0557 C   0  0  0  0  0  0  0  0  0  0  0  0
    4.8689   17.0046   21.7862 C   0  0  0  0  0  0  0  0  0  0  0  0
    4.0074   15.9212   21.9790 C   0  0  0  0  0  0  0  0  0  0  0  0
    5.3755   19.3160   20.8320 C   0  0  0  0  0  0  0  0  0  0  0  0
    4.6151   20.5161   20.2302 C   0  0  0  0  0  0  0  0  0  0  0  0
    5.2848   21.8641   20.5127 C   0  0  0  0  0  0  0  0  0  0  0  0
    6.7956   21.7346   20.6510 C   0  0  0  0  0  0  0  0  0  0  0  0
    7.1880   20.8025   21.7989 C   0  0  0  0  0  0  0  0  0  0  0  0
    6.1412   19.7248   22.0986 C   0  0  0  0  0  0  0  0  0  0  0  0
   -1.1779   15.1721   17.8321 C   0  0  0  0  0  0  0  0  0  0  0  0
   -0.9637   16.6339   17.5334 C   0  0  0  0  0  0  0  0  0  0  0  0
   -2.0553   17.4922   17.4388 C   0  0  0  0  0  0  0  0  0  0  0  0
   -1.9327   18.8071   17.1398 N   0  0  0  0  0  0  0  0  0  0  0  0
   -0.6674   19.2362   16.9303 C   0  0  0  0  0  0  0  0  0  0  0  0
    0.4265   18.3909   17.0096 C   0  0  0  0  0  0  0  0  0  0  0  0
    0.3079   17.0758   17.3046 N   0  0  0  0  0  0  0  0  0  0  0  0
  1  2  2  0  0  0
  2  3  1  0  0  0
  3  7  1  0  0  0
  7  8  1  0  0  0
  8  9  1  0  0  0
  9 10  2  0  0  0
 10 11  1  0  0  0
 11 14  1  0  0  0
 14 15  1  0  0  0
 15 16  1  0  0  0
 16 17  1  0  0  0
 17 18  1  0  0  0
 18 19  1  0  0  0
 11 12  2  0  0  0
 12 13  1  0  0  0
  2  4  1  0  0  0
  4 20  1  0  0  0
 20 21  1  0  0  0
 21 22  2  0  0  0
 22 23  1  0  0  0
 23 24  2  0  0  0
 24 25  1  0  0  0
 25 26  2  0  0  0
 13  8  2  0  0  0
 26 21  1  0  0  0
 19 14  1  0  0  0
  3  5  1  0  0  0
  4  6  1  0  0  0
M  END
> <minimizedAffinity>
-8.75292

$$$$
OCNT-2313433


 26 29  0  0  0  0  0  0  0  0999 V2000
   -0.0284   19.2093   18.4140 C   0  0  0  0  0  0  0  0  0  0  0  0
   -0.6744   18.6681   17.1190 C   0  0  0  0  0  0  0  0  0  0  0  0
   -1.5294   17.4367   17.3915 C   0  0  0  0  0  0  0  0  0  0  0  0
   -0.6998   16.3078   18.0143 C   0  0  0  0  0  0  0  0  0  0  0  0
    0.3617   16.8345   18.8958 N   0  0  0  0  0  0  0  0  0  0  0  0
    0.0429   18.1293   19.5129 C   0  0  0  0  0  0  0  0  0  0  0  0
    0.7474   15.8680   19.8392 C   0  0  0  0  0  0  0  0  0  0  0  0
    0.0341   14.7354   20.0355 N   0  0  0  0  0  0  0  0  0  0  0  0
    0.4648   13.8393   20.9502 C   0  0  0  0  0  0  0  0  0  0  0  0
    1.5440   13.9129   21.7378 N   0  0  0  0  0  0  0  0  0  0  0  0
    2.2304   15.0535   21.5563 C   0  0  0  0  0  0  0  0  0  0  0  0
    1.8655   16.0229   20.6426 C   0  0  0  0  0  0  0  0  0  0  0  0
    2.7932   17.0141   20.8033 N   0  0  0  0  0  0  0  0  0  0  0  0
    3.6752   16.6046   21.7641 C   0  0  0  0  0  0  0  0  0  0  0  0
    3.3633   15.4177   22.2358 N   0  0  0  0  0  0  0  0  0  0  0  0
    2.8008   17.8963   20.3118 H   0  0  0  0  0  0  0  0  0  0  0  0
    1.3720   19.7923   18.1458 C   0  0  0  0  0  0  0  0  0  0  0  0
    1.7975   20.6373   19.2629 N   0  0  0  0  0  0  0  0  0  0  0  0
    1.3795   21.5644   19.2524 H   0  0  0  0  0  0  0  0  0  0  0  0
    7.4552   21.0802   20.9998 Cl  0  0  0  0  0  0  0  0  0  0  0  0
    5.8219   20.9362   20.4816 C   0  0  0  0  0  0  0  0  0  0  0  0
    5.3231   19.6976   20.0930 C   0  0  0  0  0  0  0  0  0  0  0  0
    3.9924   19.5815   19.6727 C   0  0  0  0  0  0  0  0  0  0  0  0
    3.1524   20.7001   19.6067 C   0  0  0  0  0  0  0  0  0  0  0  0
    3.6704   21.9304   20.0419 C   0  0  0  0  0  0  0  0  0  0  0  0
    4.9981   22.0554   20.4641 C   0  0  0  0  0  0  0  0  0  0  0  0
 20 21  1  0  0  0
 21 22  1  0  0  0
 22 23  2  0  0  0
 23 24  1  0  0  0
 24 18  1  0  0  0
 18 17  1  0  0  0
 17  1  1  0  0  0
  1  2  1  0  0  0
  2  3  1  0  0  0
  3  4  1  0  0  0
  4  5  1  0  0  0
  5  7  1  0  0  0
  7  8  1  0  0  0
  8  9  2  0  0  0
  9 10  1  0  0  0
 10 11  2  0  0  0
 11 12  1  0  0  0
 12 13  1  0  0  0
 13 14  1  0  0  0
 14 15  2  0  0  0
  5  6  1  0  0  0
 24 25  2  0  0  0
 25 26  1  0  0  0
 26 21  2  0  0  0
  6  1  1  0  0  0
 12  7  2  0  0  0
 15 11  1  0  0  0
 18 19  1  0  0  0
 13 16  1  0  0  0
M  END
> <minimizedAffinity>
-9.79145

$$$$
OCNT-2313441


 27 30  0  0  0  0  0  0  0  0999 V2000
    1.9628   18.1093   19.1504 N   0  0  0  0  0  0  0  0  0  0  0  0
    2.1140   19.0179   18.7079 H   0  0  0  0  0  0  0  0  0  0  0  0
    2.8809   17.8959   20.1738 C   0  0  0  0  0  0  0  0  0  0  0  0
    2.8310   16.7861   20.9525 N   0  0  0  0  0  0  0  0  0  0  0  0
    3.7635   16.6218   21.9160 C   0  0  0  0  0  0  0  0  0  0  0  0
    4.7741   17.4436   22.2458 N   0  0  0  0  0  0  0  0  0  0  0  0
    4.8160   18.5528   21.4700 C   0  0  0  0  0  0  0  0  0  0  0  0
    3.9060   18.7936   20.4548 C   0  0  0  0  0  0  0  0  0  0  0  0
    4.1740   19.9799   19.8384 O   0  0  0  0  0  0  0  0  0  0  0  0
    5.2687   20.5012   20.4628 C   0  0  0  0  0  0  0  0  0  0  0  0
    5.8782   21.7116   20.1395 C   0  0  0  0  0  0  0  0  0  0  0  0
    6.9944   22.0736   20.9015 C   0  0  0  0  0  0  0  0  0  0  0  0
    7.4643   21.2545   21.9319 C   0  0  0  0  0  0  0  0  0  0  0  0
    6.8306   20.0412   22.2355 C   0  0  0  0  0  0  0  0  0  0  0  0
    5.7062   19.6579   21.4810 C   0  0  0  0  0  0  0  0  0  0  0  0
    0.5491   17.8796   19.4624 C   0  0  0  0  0  0  0  0  0  0  0  0
    0.0637   16.5989   18.8108 C   0  0  0  0  0  0  0  0  0  0  0  0
   -0.4403   16.5393   17.5080 C   0  0  0  0  0  0  0  0  0  0  0  0
   -0.5001   17.6435   16.7483 F   0  0  0  0  0  0  0  0  0  0  0  0
   -0.9001   15.3428   16.9545 C   0  0  0  0  0  0  0  0  0  0  0  0
   -0.8747   14.1707   17.7067 C   0  0  0  0  0  0  0  0  0  0  0  0
   -0.3946   14.2076   19.0130 C   0  0  0  0  0  0  0  0  0  0  0  0
    0.0611   15.4116   19.5504 C   0  0  0  0  0  0  0  0  0  0  0  0
    0.4902   15.4175   20.8212 F   0  0  0  0  0  0  0  0  0  0  0  0
    0.4436   20.1120   18.4096 O   0  0  0  0  0  0  0  0  0  0  0  0
   -0.3315   19.0783   19.0263 C   0  0  0  0  0  0  0  0  0  0  0  0
   -0.1630   20.8502   18.2290 H   0  0  0  0  0  0  0  0  0  0  0  0
 25 26  1  0  0  0
 26 16  1  0  0  0
 16  1  1  0  0  0
  1  3  1  0  0  0
  3  4  1  0  0  0
  4  5  2  0  0  0
  5  6  1  0  0  0
  6  7  2  0  0  0
  7  8  1  0  0  0
  8  9  1  0  0  0
  9 10  1  0  0  0
 10 11  2  0  0  0
 11 12  1  0  0  0
 12 13  2  0  0  0
 13 14  1  0  0  0
 14 15  2  0  0  0
 16 17  1  0  0  0
 17 18  2  0  0  0
 18 19  1  0  0  0
 18 20  1  0  0  0
 20 21  2  0  0  0
 21 22  1  0  0  0
 22 23  2  0  0  0
 23 24  1  0  0  0
  8  3  2  0  0  0
 15 10  1  0  0  0
 23 17  1  0  0  0
 15  7  1  0  0  0
 25 27  1  0  0  0
  1  2  1  0  0  0
M  END
> <minimizedAffinity>
-11.36593

$$$$
OCNT-2313450


 25 27  0  0  0  0  0  0  0  0999 V2000
    1.2997   18.8950   19.1912 C   0  0  0  0  0  0  0  0  0  0  0  0
    0.2267   19.2617   19.6578 O   0  0  0  0  0  0  0  0  0  0  0  0
    1.3789   18.0320   18.1162 N   0  0  0  0  0  0  0  0  0  0  0  0
    2.1943   17.4334   18.1040 H   0  0  0  0  0  0  0  0  0  0  0  0
    6.0296   17.8906   22.3906 C   0  0  0  0  0  0  0  0  0  0  0  0
    5.7386   19.1585   21.6350 C   0  0  0  0  0  0  0  0  0  0  0  0
    6.6819   20.2093   21.6950 C   0  0  0  0  0  0  0  0  0  0  0  0
    6.4775   21.4135   21.0237 C   0  0  0  0  0  0  0  0  0  0  0  0
    5.3253   21.6057   20.2721 C   0  0  0  0  0  0  0  0  0  0  0  0
    5.1232   22.7617   19.6267 F   0  0  0  0  0  0  0  0  0  0  0  0
    4.3901   20.5757   20.2037 C   0  0  0  0  0  0  0  0  0  0  0  0
    4.5662   19.3620   20.8644 C   0  0  0  0  0  0  0  0  0  0  0  0
    3.4144   18.5784   20.5687 C   0  0  0  0  0  0  0  0  0  0  0  0
    2.5785   19.3006   19.7317 C   0  0  0  0  0  0  0  0  0  0  0  0
    3.1864   20.5208   19.5443 N   0  0  0  0  0  0  0  0  0  0  0  0
    2.7959   21.2929   19.0223 H   0  0  0  0  0  0  0  0  0  0  0  0
    0.1531   17.4138   17.5954 C   0  0  0  0  0  0  0  0  0  0  0  0
   -0.8048   18.5337   17.1980 C   0  0  0  0  0  0  0  0  0  0  0  0
   -2.0212   18.5155   17.3223 O   0  0  0  0  0  0  0  0  0  0  0  0
   -0.1898   19.5834   16.6189 O   0  0  0  0  0  0  0  0  0  0  0  0
   -0.9105   20.2261   16.4496 H   0  0  0  0  0  0  0  0  0  0  0  0
   -0.5234   16.5375   18.6552 C   0  0  0  0  0  0  0  0  0  0  0  0
    0.4105   15.4992   19.2138 C   0  0  0  0  0  0  0  0  0  0  0  0
    0.3341   15.1247   20.6710 C   0  0  0  0  0  0  0  0  0  0  0  0
   -0.1116   14.1459   19.6194 C   0  0  0  0  0  0  0  0  0  0  0  0
  5  6  1  0  0  0
  6  7  1  0  0  0
  7  8  2  0  0  0
  8  9  1  0  0  0
  9 10  1  0  0  0
  9 11  2  0  0  0
 11 12  1  0  0  0
 12 13  1  0  0  0
 13 14  2  0  0  0
 14  1  1  0  0  0
  1  2  2  0  0  0
  1  3  1  0  0  0
  3 17  1  0  0  0
 17 22  1  0  0  0
 22 23  1  0  0  0
 23 24  1  0  0  0
 24 25  1  0  0  0
 17 18  1  0  0  0
 18 19  2  0  0  0
 18 20  1  0  0  0
 14 15  1  0  0  0
 12  6  2  0  0  0
 25 23  1  0  0  0
 15 11  1  0  0  0
  3  4  1  0  0  0
 20 21  1  0  0  0
 15 16  1  0  0  0
M  END
> <minimizedAffinity>
-10.62391

$$$$
OCNT-2313460


 23 25  0  0  0  0  0  0  0  0999 V2000
    2.1445   18.4217   18.8204 C   0  0  0  0  0  0  0  0  0  0  0  0
    0.7376   20.4518   19.1064 C   0  0  0  0  0  0  0  0  0  0  0  0
    0.7016   18.9790   18.6346 C   0  0  0  0  0  0  0  0  0  0  0  0
    0.2683   18.9431   17.1536 C   0  0  0  0  0  0  0  0  0  0  0  0
   -1.1315   19.1746   17.0224 O   0  0  0  0  0  0  0  0  0  0  0  0
   -1.3653   18.9790   16.0977 H   0  0  0  0  0  0  0  0  0  0  0  0
   -0.2657   18.1385   19.5185 C   0  0  0  0  0  0  0  0  0  0  0  0
   -0.1880   16.6441   19.3314 C   0  0  0  0  0  0  0  0  0  0  0  0
   -0.7114   15.8826   18.3040 C   0  0  0  0  0  0  0  0  0  0  0  0
   -0.4595   14.4910   18.4735 C   0  0  0  0  0  0  0  0  0  0  0  0
    0.2298   14.2308   19.6358 C   0  0  0  0  0  0  0  0  0  0  0  0
    0.5622   15.6564   20.5172 S   0  0  0  0  0  0  0  0  0  0  0  0
    3.0609   19.4490   19.3173 N   0  0  0  0  0  0  0  0  0  0  0  0
    2.5777   20.3103   19.5559 H   0  0  0  0  0  0  0  0  0  0  0  0
    3.8819   19.0566   20.3833 C   0  0  0  0  0  0  0  0  0  0  0  0
    3.6546   17.8884   21.0260 N   0  0  0  0  0  0  0  0  0  0  0  0
    4.4605   17.5323   22.0388 C   0  0  0  0  0  0  0  0  0  0  0  0
    5.5068   18.2032   22.5251 N   0  0  0  0  0  0  0  0  0  0  0  0
    5.7199   19.3513   21.8624 C   0  0  0  0  0  0  0  0  0  0  0  0
    4.9767   19.8439   20.8008 C   0  0  0  0  0  0  0  0  0  0  0  0
    5.5193   21.0954   20.3432 C   0  0  0  0  0  0  0  0  0  0  0  0
    6.6200   21.4956   21.0691 C   0  0  0  0  0  0  0  0  0  0  0  0
    7.0127   20.3747   22.2986 S   0  0  0  0  0  0  0  0  0  0  0  0
  2  3  1  0  0  0
  3  4  1  0  0  0
  4  5  1  0  0  0
  3  1  1  0  0  0
  1 13  1  0  0  0
 13 15  1  0  0  0
 15 16  1  0  0  0
 16 17  2  0  0  0
 17 18  1  0  0  0
 18 19  2  0  0  0
 19 20  1  0  0  0
 20 21  1  0  0  0
 21 22  2  0  0  0
 22 23  1  0  0  0
  3  7  1  0  0  0
  7  8  1  0  0  0
  8  9  2  0  0  0
  9 10  1  0  0  0
 10 11  2  0  0  0
 11 12  1  0  0  0
 20 15  2  0  0  0
 12  8  1  0  0  0
 23 19  1  0  0  0
  5  6  1  0  0  0
 13 14  1  0  0  0
M  END
> <minimizedAffinity>
-8.05094

$$$$
OCNT-2313469


 27 30  0  0  0  0  0  0  0  0999 V2000
   -0.4554   14.2363   19.4256 O   0  0  0  0  0  0  0  0  0  0  0  0
    0.3385   14.8931   20.0994 C   0  0  0  0  0  0  0  0  0  0  0  0
    0.8171   14.4436   21.2979 N   0  0  0  0  0  0  0  0  0  0  0  0
    0.7695   16.1403   19.7078 N   0  0  0  0  0  0  0  0  0  0  0  0
    0.1402   16.8079   18.5625 C   0  0  0  0  0  0  0  0  0  0  0  0
    0.6538   18.2498   18.5495 C   0  0  0  0  0  0  0  0  0  0  0  0
    1.8344   18.1527   19.4642 C   0  0  0  0  0  0  0  0  0  0  0  0
    2.7973   19.1274   19.6954 C   0  0  0  0  0  0  0  0  0  0  0  0
    3.8342   18.8680   20.6065 C   0  0  0  0  0  0  0  0  0  0  0  0
    3.8597   17.6123   21.2532 C   0  0  0  0  0  0  0  0  0  0  0  0
    2.8789   16.6378   21.0173 C   0  0  0  0  0  0  0  0  0  0  0  0
    1.8557   16.9270   20.1332 C   0  0  0  0  0  0  0  0  0  0  0  0
    0.9115   15.1794   21.9850 H   0  0  0  0  0  0  0  0  0  0  0  0
    4.8743   19.8752   20.8752 C   0  0  0  0  0  0  0  0  0  0  0  0
    4.8880   21.1041   20.1893 C   0  0  0  0  0  0  0  0  0  0  0  0
    5.8743   22.0641   20.4400 C   0  0  0  0  0  0  0  0  0  0  0  0
    6.8648   21.8096   21.3840 C   0  0  0  0  0  0  0  0  0  0  0  0
    6.8598   20.6001   22.0664 C   0  0  0  0  0  0  0  0  0  0  0  0
    7.8115   20.3540   22.9764 F   0  0  0  0  0  0  0  0  0  0  0  0
    5.8826   19.6391   21.8226 C   0  0  0  0  0  0  0  0  0  0  0  0
    0.3120   13.2125   21.8699 C   0  0  0  0  0  0  0  0  0  0  0  0
   -0.4615   13.5392   23.1085 C   0  0  0  0  0  0  0  0  0  0  0  0
   -0.4546   14.7859   23.6113 N   0  0  0  0  0  0  0  0  0  0  0  0
   -1.2539   14.7033   24.6886 N   0  0  0  0  0  0  0  0  0  0  0  0
   -1.7724   13.4590   24.8882 C   0  0  0  0  0  0  0  0  0  0  0  0
   -1.2812   12.6760   23.8728 C   0  0  0  0  0  0  0  0  0  0  0  0
   -1.4036   15.5404   25.2421 H   0  0  0  0  0  0  0  0  0  0  0  0
  1  2  2  0  0  0
  2  3  1  0  0  0
  3 21  1  0  0  0
 21 22  1  0  0  0
 22 23  2  0  0  0
 23 24  1  0  0  0
 24 25  1  0  0  0
 25 26  2  0  0  0
  2  4  1  0  0  0
  4  5  1  0  0  0
  5  6  1  0  0  0
  6  7  1  0  0  0
  7  8  1  0  0  0
  8  9  2  0  0  0
  9 14  1  0  0  0
 14 15  2  0  0  0
 15 16  1  0  0  0
 16 17  2  0  0  0
 17 18  1  0  0  0
 18 19  1  0  0  0
 18 20  2  0  0  0
  9 10  1  0  0  0
 10 11  2  0  0  0
 11 12  1  0  0  0
 26 22  1  0  0  0
 12  4  1  0  0  0
 12  7  2  0  0  0
 20 14  1  0  0  0
  3 13  1  0  0  0
 24 27  1  0  0  0
M  END
> <minimizedAffinity>
-10.12502

$$$$
OCNT-2313477


 23 25  0  0  0  0  0  0  0  0999 V2000
    1.6258   15.4390   20.7352 C   0  0  0  0  0  0  0  0  0  0  0  0
    2.0412   14.3303   21.4274 C   0  0  0  0  0  0  0  0  0  0  0  0
    3.1773   14.5213   22.1647 C   0  0  0  0  0  0  0  0  0  0  0  0
    3.8452   15.6910   22.2096 N   0  0  0  0  0  0  0  0  0  0  0  0
    3.3680   16.7279   21.4989 C   0  0  0  0  0  0  0  0  0  0  0  0
    2.2608   16.6370   20.7534 N   0  0  0  0  0  0  0  0  0  0  0  0
    4.0204   17.9349   21.5557 N   0  0  0  0  0  0  0  0  0  0  0  0
    4.2280   18.6983   20.3293 C   0  0  0  0  0  0  0  0  0  0  0  0
    4.7427   20.1019   20.6855 C   0  0  0  0  0  0  0  0  0  0  0  0
    5.9746   20.1032   21.4246 O   0  0  0  0  0  0  0  0  0  0  0  0
    6.1838   18.9089   22.1914 C   0  0  0  0  0  0  0  0  0  0  0  0
    4.8889   18.2458   22.6906 C   0  0  0  0  0  0  0  0  0  0  0  0
    0.0436   16.5786   19.3285 N   0  0  0  0  0  0  0  0  0  0  0  0
    0.3983   15.3694   19.8831 C   0  0  0  0  0  0  0  0  0  0  0  0
   -0.2037   14.3147   19.7126 O   0  0  0  0  0  0  0  0  0  0  0  0
    0.6380   17.3798   19.5380 H   0  0  0  0  0  0  0  0  0  0  0  0
   -0.8619   17.7611   17.2731 C   0  0  0  0  0  0  0  0  0  0  0  0
   -2.0136   18.6516   16.9275 C   0  0  0  0  0  0  0  0  0  0  0  0
   -0.9119   16.2847   16.9918 C   0  0  0  0  0  0  0  0  0  0  0  0
   -1.0292   16.7677   18.4098 C   0  0  0  0  0  0  0  0  0  0  0  0
    0.4433   18.3921   17.2333 O   0  0  0  0  0  0  0  0  0  0  0  0
    1.0080   19.8644   19.0218 C   0  0  0  0  0  0  0  0  0  0  0  0
    0.4431   19.7670   17.6161 C   0  0  0  0  0  0  0  0  0  0  0  0
 22 23  1  0  0  0
 23 21  1  0  0  0
 17 21  1  0  0  0
 17 18  1  0  0  0
 17 19  1  0  0  0
 19 20  1  0  0  0
 20 13  1  0  0  0
 13 14  1  0  0  0
 14 15  2  0  0  0
 14  1  1  0  0  0
  1  2  1  0  0  0
  2  3  2  0  0  0
  3  4  1  0  0  0
  4  5  2  0  0  0
  5  7  1  0  0  0
  7  8  1  0  0  0
  8  9  1  0  0  0
  9 10  1  0  0  0
 10 11  1  0  0  0
 11 12  1  0  0  0
  5  6  1  0  0  0
 20 17  1  0  0  0
  6  1  2  0  0  0
 12  7  1  0  0  0
 13 16  1  0  0  0
M  END
> <minimizedAffinity>
-8.72992

$$$$
OCNT-2313486


 25 29  0  0  0  0  0  0  0  0999 V2000
    3.8428   18.0123   21.0051 C   0  0  0  0  0  0  0  0  0  0  0  0
    2.6083   17.4195   20.8106 C   0  0  0  0  0  0  0  0  0  0  0  0
    2.5799   16.0295   21.1719 C   0  0  0  0  0  0  0  0  0  0  0  0
    3.8173   15.6253   21.6395 C   0  0  0  0  0  0  0  0  0  0  0  0
    4.1460   14.3975   22.0726 N   0  0  0  0  0  0  0  0  0  0  0  0
    3.1154   13.5518   22.0134 C   0  0  0  0  0  0  0  0  0  0  0  0
    1.8690   13.8027   21.5795 N   0  0  0  0  0  0  0  0  0  0  0  0
    1.5641   15.0493   21.1471 C   0  0  0  0  0  0  0  0  0  0  0  0
    4.9713   16.8758   21.6207 S   0  0  0  0  0  0  0  0  0  0  0  0
    5.0696   22.0370   20.2069 C   0  0  0  0  0  0  0  0  0  0  0  0
    3.9313   21.5253   19.5886 C   0  0  0  0  0  0  0  0  0  0  0  0
    3.5229   20.2137   19.8468 C   0  0  0  0  0  0  0  0  0  0  0  0
    4.2465   19.3977   20.7293 C   0  0  0  0  0  0  0  0  0  0  0  0
    5.3940   19.9268   21.3400 C   0  0  0  0  0  0  0  0  0  0  0  0
    5.8017   21.2385   21.0821 C   0  0  0  0  0  0  0  0  0  0  0  0
    0.2751   15.3388   20.6689 N   0  0  0  0  0  0  0  0  0  0  0  0
   -0.2059   14.4545   19.5949 C   0  0  0  0  0  0  0  0  0  0  0  0
   -0.1755   15.3091   18.3350 C   0  0  0  0  0  0  0  0  0  0  0  0
   -0.5785   16.6793   18.8740 C   0  0  0  0  0  0  0  0  0  0  0  0
    0.2016   16.7433   20.1936 C   0  0  0  0  0  0  0  0  0  0  0  0
   -0.3219   17.8107   18.0205 N   0  0  0  0  0  0  0  0  0  0  0  0
    0.3755   18.9497   18.2767 C   0  0  0  0  0  0  0  0  0  0  0  0
    0.3925   19.7078   17.2047 N   0  0  0  0  0  0  0  0  0  0  0  0
   -0.3111   18.9722   16.2969 C   0  0  0  0  0  0  0  0  0  0  0  0
   -0.7643   17.7995   16.7469 N   0  0  0  0  0  0  0  0  0  0  0  0
 10 11  2  0  0  0
 11 12  1  0  0  0
 12 13  2  0  0  0
 13  1  1  0  0  0
  1  2  2  0  0  0
  2  3  1  0  0  0
  3  4  1  0  0  0
  4  5  2  0  0  0
  5  6  1  0  0  0
  6  7  2  0  0  0
  7  8  1  0  0  0
  8 16  1  0  0  0
 16 17  1  0  0  0
 17 18  1  0  0  0
 18 19  1  0  0  0
 19 21  1  0  0  0
 21 22  1  0  0  0
 22 23  2  0  0  0
 23 24  1  0  0  0
 24 25  2  0  0  0
 19 20  1  0  0  0
  4  9  1  0  0  0
 13 14  1  0  0  0
 14 15  2  0  0  0
 15 10  1  0  0  0
  9  1  1  0  0  0
  8  3  2  0  0  0
 20 16  1  0  0  0
 25 21  1  0  0  0
M  END
> <minimizedAffinity>
-9.08129

$$$$
OCNT-2313532


 24 27  0  0  0  0  0  0  0  0999 V2000
    4.3742   18.2389   23.5665 O   0  0  0  0  0  0  0  0  0  0  0  0
    4.8651   18.3700   22.4511 C   0  0  0  0  0  0  0  0  0  0  0  0
    4.5141   17.6696   21.3099 N   0  0  0  0  0  0  0  0  0  0  0  0
    5.0283   17.9270   20.4705 H   0  0  0  0  0  0  0  0  0  0  0  0
    3.5040   16.7278   21.2589 C   0  0  0  0  0  0  0  0  0  0  0  0
    3.4207   15.4469   21.7610 C   0  0  0  0  0  0  0  0  0  0  0  0
    2.1394   14.9902   21.4091 C   0  0  0  0  0  0  0  0  0  0  0  0
    1.4440   15.8998   20.7256 N   0  0  0  0  0  0  0  0  0  0  0  0
    2.2911   16.9521   20.6395 N   0  0  0  0  0  0  0  0  0  0  0  0
    1.8703   18.1353   19.8959 C   0  0  0  0  0  0  0  0  0  0  0  0
    0.6740   17.8403   19.0420 C   0  0  0  0  0  0  0  0  0  0  0  0
    0.1031   16.6128   18.7507 C   0  0  0  0  0  0  0  0  0  0  0  0
   -1.0374   16.7320   17.9013 C   0  0  0  0  0  0  0  0  0  0  0  0
   -1.2772   18.0416   17.5781 C   0  0  0  0  0  0  0  0  0  0  0  0
   -2.5439   18.6388   16.5853 Cl  0  0  0  0  0  0  0  0  0  0  0  0
   -0.1687   19.1191   18.2634 S   0  0  0  0  0  0  0  0  0  0  0  0
    5.9368   19.3203   22.1647 C   0  0  0  0  0  0  0  0  0  0  0  0
    5.8406   20.5582   21.5606 C   0  0  0  0  0  0  0  0  0  0  0  0
    7.0978   21.0935   21.5006 O   0  0  0  0  0  0  0  0  0  0  0  0
    7.8916   20.1474   22.0670 C   0  0  0  0  0  0  0  0  0  0  0  0
    7.2690   19.0691   22.4869 N   0  0  0  0  0  0  0  0  0  0  0  0
    4.5625   21.2522   21.0287 C   0  0  0  0  0  0  0  0  0  0  0  0
    4.6708   22.2093   19.8710 C   0  0  0  0  0  0  0  0  0  0  0  0
    4.0434   20.8607   19.6700 C   0  0  0  0  0  0  0  0  0  0  0  0
  1  2  2  0  0  0
  2  3  1  0  0  0
  3  5  1  0  0  0
  5  6  2  0  0  0
  6  7  1  0  0  0
  7  8  2  0  0  0
  8  9  1  0  0  0
  9 10  1  0  0  0
 10 11  1  0  0  0
 11 12  2  0  0  0
 12 13  1  0  0  0
 13 14  2  0  0  0
 14 15  1  0  0  0
 14 16  1  0  0  0
  2 17  1  0  0  0
 17 18  2  0  0  0
 18 22  1  0  0  0
 22 23  1  0  0  0
 23 24  1  0  0  0
 18 19  1  0  0  0
 19 20  1  0  0  0
 20 21  2  0  0  0
  9  5  1  0  0  0
 16 11  1  0  0  0
 21 17  1  0  0  0
 24 22  1  0  0  0
  3  4  1  0  0  0
M  END
> <minimizedAffinity>
-7.91750

$$$$
OCNT-2313533


 25 28  0  0  0  0  0  0  0  0999 V2000
    3.4560   14.4708   22.1005 O   0  0  0  0  0  0  0  0  0  0  0  0
    2.5505   15.1767   21.6617 C   0  0  0  0  0  0  0  0  0  0  0  0
    2.6560   16.5427   21.4727 N   0  0  0  0  0  0  0  0  0  0  0  0
    1.7914   17.0674   21.3834 H   0  0  0  0  0  0  0  0  0  0  0  0
    3.8129   17.2728   21.8915 C   0  0  0  0  0  0  0  0  0  0  0  0
    5.1960   16.7350   21.6868 C   0  0  0  0  0  0  0  0  0  0  0  0
    4.7252   17.9001   20.8529 C   0  0  0  0  0  0  0  0  0  0  0  0
    5.2360   19.3090   21.0789 C   0  0  0  0  0  0  0  0  0  0  0  0
    6.3686   19.5444   21.8823 C   0  0  0  0  0  0  0  0  0  0  0  0
    6.8673   20.8342   22.0922 C   0  0  0  0  0  0  0  0  0  0  0  0
    6.2497   21.9270   21.4923 C   0  0  0  0  0  0  0  0  0  0  0  0
    5.1348   21.7292   20.6816 C   0  0  0  0  0  0  0  0  0  0  0  0
    4.6387   20.4363   20.4758 C   0  0  0  0  0  0  0  0  0  0  0  0
    3.2657   20.2624   19.4329 Cl  0  0  0  0  0  0  0  0  0  0  0  0
    1.2012   14.6073   21.2626 C   0  0  0  0  0  0  0  0  0  0  0  0
    0.6056   15.3030   20.0592 C   0  0  0  0  0  0  0  0  0  0  0  0
   -0.1862   14.5872   19.1478 C   0  0  0  0  0  0  0  0  0  0  0  0
   -0.7401   15.2094   18.0198 C   0  0  0  0  0  0  0  0  0  0  0  0
   -0.4929   16.5770   17.8125 C   0  0  0  0  0  0  0  0  0  0  0  0
   -0.8492   17.5444   16.8469 C   0  0  0  0  0  0  0  0  0  0  0  0
   -0.3402   18.7510   17.1103 N   0  0  0  0  0  0  0  0  0  0  0  0
    0.3464   18.5568   18.2514 N   0  0  0  0  0  0  0  0  0  0  0  0
    0.2908   17.2716   18.7256 C   0  0  0  0  0  0  0  0  0  0  0  0
    0.8534   16.6733   19.8578 C   0  0  0  0  0  0  0  0  0  0  0  0
    0.8351   19.3450   18.6600 H   0  0  0  0  0  0  0  0  0  0  0  0
  1  2  2  0  0  0
  2 15  1  0  0  0
 15 16  1  0  0  0
 16 17  2  0  0  0
 17 18  1  0  0  0
 18 19  2  0  0  0
 19 20  1  0  0  0
 20 21  2  0  0  0
 21 22  1  0  0  0
 22 23  1  0  0  0
 23 24  2  0  0  0
  2  3  1  0  0  0
  3  5  1  0  0  0
  5  6  1  0  0  0
  6  7  1  0  0  0
  7  8  1  0  0  0
  8  9  2  0  0  0
  9 10  1  0  0  0
 10 11  2  0  0  0
 11 12  1  0  0  0
 12 13  2  0  0  0
 13 14  1  0  0  0
 24 16  1  0  0  0
  7  5  1  0  0  0
 13  8  1  0  0  0
 23 19  1  0  0  0
 22 25  1  0  0  0
  3  4  1  0  0  0
M  END
> <minimizedAffinity>
-12.61832

$$$$
OCNT-2313538


 24 27  0  0  0  0  0  0  0  0999 V2000
    2.4067   17.3537   19.8263 N   0  0  0  0  0  0  0  0  0  0  0  0
    1.5058   17.4851   18.8018 C   0  0  0  0  0  0  0  0  0  0  0  0
    1.4333   18.4475   18.0425 O   0  0  0  0  0  0  0  0  0  0  0  0
    0.6617   16.3782   18.6450 N   0  0  0  0  0  0  0  0  0  0  0  0
    0.2209   15.5330   19.7854 C   0  0  0  0  0  0  0  0  0  0  0  0
   -0.0525   14.0672   19.3787 C   0  0  0  0  0  0  0  0  0  0  0  0
   -0.8157   14.0411   18.1117 C   0  0  0  0  0  0  0  0  0  0  0  0
   -0.8742   15.1358   17.2815 C   0  0  0  0  0  0  0  0  0  0  0  0
   -0.2577   16.4637   17.4966 C   0  0  0  0  0  0  0  0  0  0  0  0
   -1.6338   14.7685   16.2135 N   0  0  0  0  0  0  0  0  0  0  0  0
   -2.0799   13.4998   16.3038 N   0  0  0  0  0  0  0  0  0  0  0  0
   -1.5734   13.0572   17.4604 C   0  0  0  0  0  0  0  0  0  0  0  0
    2.6814   16.4301   20.1114 H   0  0  0  0  0  0  0  0  0  0  0  0
   -1.8929   15.3144   15.3977 H   0  0  0  0  0  0  0  0  0  0  0  0
    7.4732   21.7095   22.8693 C   0  0  0  0  0  0  0  0  0  0  0  0
    6.3234   21.2103   22.0400 C   0  0  0  0  0  0  0  0  0  0  0  0
    5.6476   22.1047   21.2080 C   0  0  0  0  0  0  0  0  0  0  0  0
    4.5783   21.6522   20.4330 C   0  0  0  0  0  0  0  0  0  0  0  0
    4.2279   20.2976   20.5268 C   0  0  0  0  0  0  0  0  0  0  0  0
    3.2133   19.6354   19.8625 N   0  0  0  0  0  0  0  0  0  0  0  0
    3.2287   18.3755   20.2166 C   0  0  0  0  0  0  0  0  0  0  0  0
    4.4025   17.9043   21.3669 S   0  0  0  0  0  0  0  0  0  0  0  0
    4.9795   19.5079   21.3917 C   0  0  0  0  0  0  0  0  0  0  0  0
    6.0165   19.8968   22.1609 N   0  0  0  0  0  0  0  0  0  0  0  0
 15 16  1  0  0  0
 16 17  1  0  0  0
 17 18  2  0  0  0
 18 19  1  0  0  0
 19 20  1  0  0  0
 20 21  2  0  0  0
 21  1  1  0  0  0
  1  2  1  0  0  0
  2  3  2  0  0  0
  2  4  1  0  0  0
  4  5  1  0  0  0
  5  6  1  0  0  0
  6  7  1  0  0  0
  7  8  2  0  0  0
  8  9  1  0  0  0
  8 10  1  0  0  0
 10 11  1  0  0  0
 11 12  2  0  0  0
 21 22  1  0  0  0
 22 23  1  0  0  0
 23 24  1  0  0  0
 24 16  2  0  0  0
 23 19  2  0  0  0
  9  4  1  0  0  0
 12  7  1  0  0  0
  1 13  1  0  0  0
 10 14  1  0  0  0
M  END
> <minimizedAffinity>
-3.19985

$$$$
OCNT-2313565


 27 30  0  0  0  0  0  0  0  0999 V2000
    3.9862   14.9248   22.1003 O   0  0  0  0  0  0  0  0  0  0  0  0
    3.3914   15.9336   21.7218 C   0  0  0  0  0  0  0  0  0  0  0  0
    2.0318   15.8908   21.4640 N   0  0  0  0  0  0  0  0  0  0  0  0
    1.6040   16.6764   20.9827 H   0  0  0  0  0  0  0  0  0  0  0  0
    4.0322   17.2269   21.4980 C   0  0  0  0  0  0  0  0  0  0  0  0
    3.7288   18.2461   20.6141 C   0  0  0  0  0  0  0  0  0  0  0  0
    4.6172   19.3727   20.7040 C   0  0  0  0  0  0  0  0  0  0  0  0
    5.5856   19.1602   21.6712 C   0  0  0  0  0  0  0  0  0  0  0  0
    6.7046   20.0650   22.1103 C   0  0  0  0  0  0  0  0  0  0  0  0
    7.2620   20.9090   20.9664 C   0  0  0  0  0  0  0  0  0  0  0  0
    6.4019   22.1227   20.6037 C   0  0  0  0  0  0  0  0  0  0  0  0
    4.8903   21.8931   20.5313 C   0  0  0  0  0  0  0  0  0  0  0  0
    4.4844   20.5958   19.8363 C   0  0  0  0  0  0  0  0  0  0  0  0
    5.3997   17.6439   22.4416 S   0  0  0  0  0  0  0  0  0  0  0  0
    1.2858   14.6519   21.4745 C   0  0  0  0  0  0  0  0  0  0  0  0
    0.0449   14.7149   20.5810 C   0  0  0  0  0  0  0  0  0  0  0  0
    0.3628   15.0811   19.1281 C   0  0  0  0  0  0  0  0  0  0  0  0
   -0.6072   14.4420   18.1065 C   0  0  0  0  0  0  0  0  0  0  0  0
   -0.7980   13.2491   17.9224 O   0  0  0  0  0  0  0  0  0  0  0  0
   -1.2238   15.4681   17.4066 N   0  0  0  0  0  0  0  0  0  0  0  0
   -0.7761   16.7075   17.8299 C   0  0  0  0  0  0  0  0  0  0  0  0
   -1.1604   17.9420   17.3537 C   0  0  0  0  0  0  0  0  0  0  0  0
   -0.5645   19.0639   17.9325 C   0  0  0  0  0  0  0  0  0  0  0  0
    0.3885   18.9232   18.9578 C   0  0  0  0  0  0  0  0  0  0  0  0
    0.7614   17.6583   19.4234 C   0  0  0  0  0  0  0  0  0  0  0  0
    0.1624   16.5517   18.8483 C   0  0  0  0  0  0  0  0  0  0  0  0
   -1.9038   15.3080   16.6789 H   0  0  0  0  0  0  0  0  0  0  0  0
  1  2  2  0  0  0
  2  3  1  0  0  0
  3 15  1  0  0  0
 15 16  1  0  0  0
 16 17  1  0  0  0
 17 18  1  0  0  0
 18 19  2  0  0  0
 18 20  1  0  0  0
 20 21  1  0  0  0
 21 22  2  0  0  0
 22 23  1  0  0  0
 23 24  2  0  0  0
 24 25  1  0  0  0
 25 26  2  0  0  0
  2  5  1  0  0  0
  5  6  2  0  0  0
  6  7  1  0  0  0
  7  8  2  0  0  0
  8  9  1  0  0  0
  9 10  1  0  0  0
 10 11  1  0  0  0
 11 12  1  0  0  0
 12 13  1  0  0  0
  8 14  1  0  0  0
 26 17  1  0  0  0
 14  5  1  0  0  0
 26 21  1  0  0  0
 13  7  1  0  0  0
  3  4  1  0  0  0
 20 27  1  0  0  0
M  END
> <minimizedAffinity>
-11.41209

$$$$
OCNT-2313567


 26 29  0  0  0  0  0  0  0  0999 V2000
    4.1477   16.6109   21.5438 C   0  0  0  0  0  0  0  0  0  0  0  0
    4.8052   15.5861   21.6960 O   0  0  0  0  0  0  0  0  0  0  0  0
    2.7946   16.6826   21.2842 N   0  0  0  0  0  0  0  0  0  0  0  0
    2.4274   17.5643   20.9280 H   0  0  0  0  0  0  0  0  0  0  0  0
    4.9672   22.4298   19.8517 C   0  0  0  0  0  0  0  0  0  0  0  0
    4.5650   21.0693   20.0922 N   0  0  0  0  0  0  0  0  0  0  0  0
    3.4842   20.4398   19.5380 C   0  0  0  0  0  0  0  0  0  0  0  0
    3.3789   19.1920   19.9471 N   0  0  0  0  0  0  0  0  0  0  0  0
    4.4423   19.0119   20.8139 C   0  0  0  0  0  0  0  0  0  0  0  0
    4.8672   17.9058   21.5632 C   0  0  0  0  0  0  0  0  0  0  0  0
    6.0200   18.0609   22.3459 C   0  0  0  0  0  0  0  0  0  0  0  0
    6.6738   19.2863   22.3504 C   0  0  0  0  0  0  0  0  0  0  0  0
    6.3016   20.3847   21.6503 N   0  0  0  0  0  0  0  0  0  0  0  0
    5.1950   20.1769   20.9122 C   0  0  0  0  0  0  0  0  0  0  0  0
    1.9175   15.6131   21.3236 C   0  0  0  0  0  0  0  0  0  0  0  0
    2.0791   14.5799   22.2182 C   0  0  0  0  0  0  0  0  0  0  0  0
    1.0172   13.7519   22.0336 N   0  0  0  0  0  0  0  0  0  0  0  0
    0.1872   14.1419   21.0591 N   0  0  0  0  0  0  0  0  0  0  0  0
    0.7632   15.2558   20.5540 C   0  0  0  0  0  0  0  0  0  0  0  0
    0.7941   12.9002   22.5369 H   0  0  0  0  0  0  0  0  0  0  0  0
    0.2402   15.8660   19.3294 C   0  0  0  0  0  0  0  0  0  0  0  0
   -0.4709   15.0989   18.4104 C   0  0  0  0  0  0  0  0  0  0  0  0
   -0.9177   15.7045   17.2394 C   0  0  0  0  0  0  0  0  0  0  0  0
   -0.6354   17.0478   17.0189 C   0  0  0  0  0  0  0  0  0  0  0  0
    0.0923   17.7326   17.9791 C   0  0  0  0  0  0  0  0  0  0  0  0
    0.5473   17.1763   19.1214 N   0  0  0  0  0  0  0  0  0  0  0  0
  5  6  1  0  0  0
  6  7  1  0  0  0
  7  8  2  0  0  0
  8  9  1  0  0  0
  9 10  2  0  0  0
 10  1  1  0  0  0
  1  2  2  0  0  0
  1  3  1  0  0  0
  3 15  1  0  0  0
 15 16  2  0  0  0
 16 17  1  0  0  0
 17 18  1  0  0  0
 18 19  2  0  0  0
 19 21  1  0  0  0
 21 22  2  0  0  0
 22 23  1  0  0  0
 23 24  2  0  0  0
 24 25  1  0  0  0
 25 26  2  0  0  0
 10 11  1  0  0  0
 11 12  2  0  0  0
 12 13  1  0  0  0
 13 14  2  0  0  0
 14  6  1  0  0  0
 14  9  1  0  0  0
 19 15  1  0  0  0
 26 21  1  0  0  0
  3  4  1  0  0  0
 17 20  1  0  0  0
M  END
> <minimizedAffinity>
-9.67052

$$$$
OCNT-2313571


 27 30  0  0  0  0  0  0  0  0999 V2000
    2.8897   18.6693   19.2563 C   0  0  0  0  0  0  0  0  0  0  0  0
    3.4174   19.6089   18.6666 O   0  0  0  0  0  0  0  0  0  0  0  0
    3.5203   17.9419   20.2319 N   0  0  0  0  0  0  0  0  0  0  0  0
    3.0176   17.1411   20.6036 H   0  0  0  0  0  0  0  0  0  0  0  0
    4.8974   18.1816   20.6403 C   0  0  0  0  0  0  0  0  0  0  0  0
    5.0695   19.6577   20.9481 C   0  0  0  0  0  0  0  0  0  0  0  0
    5.0573   20.5827   19.8896 C   0  0  0  0  0  0  0  0  0  0  0  0
    5.1829   21.9496   20.1343 C   0  0  0  0  0  0  0  0  0  0  0  0
    5.3178   22.4117   21.4403 C   0  0  0  0  0  0  0  0  0  0  0  0
    5.3287   21.5080   22.5009 C   0  0  0  0  0  0  0  0  0  0  0  0
    5.1887   20.1298   22.2705 C   0  0  0  0  0  0  0  0  0  0  0  0
    5.2340   19.1922   23.4499 C   0  0  0  0  0  0  0  0  0  0  0  0
    4.7271   17.7891   23.1340 C   0  0  0  0  0  0  0  0  0  0  0  0
    5.3358   17.2811   21.8312 C   0  0  0  0  0  0  0  0  0  0  0  0
    4.9673   15.9071   21.6806 O   0  0  0  0  0  0  0  0  0  0  0  0
    4.9204   15.7118   20.7191 H   0  0  0  0  0  0  0  0  0  0  0  0
   -1.4305   19.2107   17.2973 O   0  0  0  0  0  0  0  0  0  0  0  0
   -0.6657   18.5619   17.9982 C   0  0  0  0  0  0  0  0  0  0  0  0
    0.7025   19.0100   18.2748 C   0  0  0  0  0  0  0  0  0  0  0  0
    1.4913   18.1846   18.9777 C   0  0  0  0  0  0  0  0  0  0  0  0
    1.1118   16.9477   19.4623 N   0  0  0  0  0  0  0  0  0  0  0  0
   -0.1122   16.6039   19.2352 C   0  0  0  0  0  0  0  0  0  0  0  0
   -1.0138   17.3708   18.5585 N   0  0  0  0  0  0  0  0  0  0  0  0
   -1.9503   17.0385   18.3770 H   0  0  0  0  0  0  0  0  0  0  0  0
   -0.6085   15.2955   19.7139 C   0  0  0  0  0  0  0  0  0  0  0  0
    0.3697   14.3053   20.3096 C   0  0  0  0  0  0  0  0  0  0  0  0
   -0.2833   14.0075   18.9893 C   0  0  0  0  0  0  0  0  0  0  0  0
 17 18  2  0  0  0
 18 19  1  0  0  0
 19 20  2  0  0  0
 20  1  1  0  0  0
  1  2  2  0  0  0
  1  3  1  0  0  0
  3  5  1  0  0  0
  5  6  1  0  0  0
  6  7  2  0  0  0
  7  8  1  0  0  0
  8  9  2  0  0  0
  9 10  1  0  0  0
 10 11  2  0  0  0
 11 12  1  0  0  0
 12 13  1  0  0  0
 13 14  1  0  0  0
 14 15  1  0  0  0
 20 21  1  0  0  0
 21 22  2  0  0  0
 22 25  1  0  0  0
 25 26  1  0  0  0
 26 27  1  0  0  0
 22 23  1  0  0  0
 23 18  1  0  0  0
 14  5  1  0  0  0
 27 25  1  0  0  0
 11  6  1  0  0  0
  3  4  1  0  0  0
 15 16  1  0  0  0
 23 24  1  0  0  0
M  END
> <minimizedAffinity>
-7.23031

$$$$
OCNT-2313573


 37 42  0  0  0  0  0  0  0  0999 V2000
    1.9721   16.9408   21.0216 O   0  0  0  0  0  0  0  0  0  0  0  0
    1.1521   16.2328   20.4417 C   0  0  0  0  0  0  0  0  0  0  0  0
    0.6298   16.5107   19.1969 N   0  0  0  0  0  0  0  0  0  0  0  0
    0.6826   15.0522   21.0171 N   0  0  0  0  0  0  0  0  0  0  0  0
   -0.3708   14.2064   20.4616 C   0  0  0  0  0  0  0  0  0  0  0  0
   -1.0749   13.4012   21.5123 C   0  0  0  0  0  0  0  0  0  0  0  0
   -0.7751   13.4168   22.8243 C   0  0  0  0  0  0  0  0  0  0  0  0
    0.3810   14.2423   23.3299 C   0  0  0  0  0  0  0  0  0  0  0  0
    1.3691   14.5367   22.2018 C   0  0  0  0  0  0  0  0  0  0  0  0
    0.2567   15.7270   18.6887 H   0  0  0  0  0  0  0  0  0  0  0  0
   -1.4552   12.6348   23.8103 C   0  0  0  0  0  0  0  0  0  0  0  0
   -0.8224   12.0055   24.8669 C   0  0  0  0  0  0  0  0  0  0  0  0
   -1.7797   11.3684   25.6135 N   0  0  0  0  0  0  0  0  0  0  0  0
   -3.0115   11.5643   25.0557 C   0  0  0  0  0  0  0  0  0  0  0  0
   -4.1542   11.0588   25.5562 N   0  0  0  0  0  0  0  0  0  0  0  0
   -5.2393   11.3832   24.8178 C   0  0  0  0  0  0  0  0  0  0  0  0
   -5.2313   12.1482   23.6595 C   0  0  0  0  0  0  0  0  0  0  0  0
   -4.0166   12.6474   23.1861 C   0  0  0  0  0  0  0  0  0  0  0  0
   -2.8519   12.3505   23.9174 C   0  0  0  0  0  0  0  0  0  0  0  0
   -1.6289   10.8277   26.4519 H   0  0  0  0  0  0  0  0  0  0  0  0
    0.7918   17.6909   18.4397 C   0  0  0  0  0  0  0  0  0  0  0  0
    0.3219   17.8527   17.1362 C   0  0  0  0  0  0  0  0  0  0  0  0
    0.5249   19.0559   16.4543 C   0  0  0  0  0  0  0  0  0  0  0  0
    1.2122   20.1038   17.0639 C   0  0  0  0  0  0  0  0  0  0  0  0
    1.7166   19.9534   18.3604 C   0  0  0  0  0  0  0  0  0  0  0  0
    1.4929   18.7452   19.0415 C   0  0  0  0  0  0  0  0  0  0  0  0
    2.4501   21.0854   19.0368 C   0  0  0  0  0  0  0  0  0  0  0  0
    3.6009   20.6199   19.7692 N   0  0  0  0  0  0  0  0  0  0  0  0
    3.6678   19.3715   20.3701 N   0  0  0  0  0  0  0  0  0  0  0  0
    4.7871   19.4153   21.0261 C   0  0  0  0  0  0  0  0  0  0  0  0
    5.3863   18.3507   21.8582 C   0  0  0  0  0  0  0  0  0  0  0  0
    6.5599   18.6117   22.4593 C   0  0  0  0  0  0  0  0  0  0  0  0
    7.2218   19.8953   22.3031 C   0  0  0  0  0  0  0  0  0  0  0  0
    6.6611   20.8485   21.5429 C   0  0  0  0  0  0  0  0  0  0  0  0
    5.4703   20.5856   20.9252 N   0  0  0  0  0  0  0  0  0  0  0  0
    4.7107   21.4031   20.1228 C   0  0  0  0  0  0  0  0  0  0  0  0
    4.9405   22.5560   19.7892 O   0  0  0  0  0  0  0  0  0  0  0  0
  1  2  2  0  0  0
  2  3  1  0  0  0
  3 21  1  0  0  0
 21 22  1  0  0  0
 22 23  2  0  0  0
 23 24  1  0  0  0
 24 25  2  0  0  0
 25 27  1  0  0  0
 27 28  1  0  0  0
 28 29  1  0  0  0
 29 30  2  0  0  0
 30 31  1  0  0  0
 31 32  2  0  0  0
 32 33  1  0  0  0
 33 34  2  0  0  0
 34 35  1  0  0  0
 35 36  1  0  0  0
 36 37  2  0  0  0
 25 26  1  0  0  0
  2  4  1  0  0  0
  4  5  1  0  0  0
  5  6  1  0  0  0
  6  7  2  0  0  0
  7 11  1  0  0  0
 11 12  2  0  0  0
 12 13  1  0  0  0
 13 14  1  0  0  0
 14 15  1  0  0  0
 15 16  2  0  0  0
 16 17  1  0  0  0
 17 18  2  0  0  0
 18 19  1  0  0  0
  7  8  1  0  0  0
  8  9  1  0  0  0
 26 21  2  0  0  0
  9  4  1  0  0  0
 36 28  1  0  0  0
 19 11  1  0  0  0
 35 30  1  0  0  0
 19 14  2  0  0  0
  3 10  1  0  0  0
 13 20  1  0  0  0
M  END
> <minimizedAffinity>
9.70408

$$$$
OCNT-2313586


 22 24  0  0  0  0  0  0  0  0999 V2000
    3.8292   17.4494   21.3751 C   0  0  0  0  0  0  0  0  0  0  0  0
    3.9742   16.2527   22.0826 C   0  0  0  0  0  0  0  0  0  0  0  0
    3.0392   15.2263   21.9457 C   0  0  0  0  0  0  0  0  0  0  0  0
    1.9308   15.3693   21.0966 C   0  0  0  0  0  0  0  0  0  0  0  0
    0.9622   14.2208   20.9964 C   0  0  0  0  0  0  0  0  0  0  0  0
    1.7639   16.5711   20.3749 C   0  0  0  0  0  0  0  0  0  0  0  0
    2.7168   17.5900   20.5251 C   0  0  0  0  0  0  0  0  0  0  0  0
    5.4401   21.9021   20.5445 C   0  0  0  0  0  0  0  0  0  0  0  0
    5.5585   20.5592   21.1441 C   0  0  0  0  0  0  0  0  0  0  0  0
    6.5048   19.9485   21.9349 C   0  0  0  0  0  0  0  0  0  0  0  0
    6.0285   18.6363   22.1789 C   0  0  0  0  0  0  0  0  0  0  0  0
    4.8166   18.5190   21.5234 C   0  0  0  0  0  0  0  0  0  0  0  0
    4.5355   19.6988   20.8922 O   0  0  0  0  0  0  0  0  0  0  0  0
    0.6407   16.6947   19.5199 N   0  0  0  0  0  0  0  0  0  0  0  0
   -0.1074   17.8305   19.2382 C   0  0  0  0  0  0  0  0  0  0  0  0
    0.0545   18.9435   19.7209 O   0  0  0  0  0  0  0  0  0  0  0  0
    0.3335   15.8429   19.0721 H   0  0  0  0  0  0  0  0  0  0  0  0
   -1.2194   17.5364   18.2305 C   0  0  0  0  0  0  0  0  0  0  0  0
   -0.7923   16.4952   17.2135 C   0  0  0  0  0  0  0  0  0  0  0  0
   -0.1922   17.3438   16.1153 C   0  0  0  0  0  0  0  0  0  0  0  0
   -0.9991   18.5212   16.0574 O   0  0  0  0  0  0  0  0  0  0  0  0
   -1.5730   18.7348   17.3596 C   0  0  0  0  0  0  0  0  0  0  0  0
  8  9  1  0  0  0
  9 10  2  0  0  0
 10 11  1  0  0  0
 11 12  2  0  0  0
 12  1  1  0  0  0
  1  2  1  0  0  0
  2  3  2  0  0  0
  3  4  1  0  0  0
  4  5  1  0  0  0
  4  6  2  0  0  0
  6 14  1  0  0  0
 14 15  1  0  0  0
 15 16  2  0  0  0
 15 18  1  0  0  0
 18 19  1  0  0  0
 19 20  1  0  0  0
 20 21  1  0  0  0
 21 22  1  0  0  0
  6  7  1  0  0  0
 12 13  1  0  0  0
 13  9  1  0  0  0
  7  1  2  0  0  0
 22 18  1  0  0  0
 14 17  1  0  0  0
M  END
> <minimizedAffinity>
-10.25279

$$$$
OCNT-2313602


 26 28  0  0  0  0  0  0  0  0999 V2000
    2.2383   16.6995   21.0089 C   0  0  0  0  0  0  0  0  0  0  0  0
    1.8835   15.7201   21.6555 O   0  0  0  0  0  0  0  0  0  0  0  0
    3.3575   17.4534   21.2996 N   0  0  0  0  0  0  0  0  0  0  0  0
    4.2107   17.1231   22.4250 C   0  0  0  0  0  0  0  0  0  0  0  0
    5.4733   17.9392   22.1893 C   0  0  0  0  0  0  0  0  0  0  0  0
    4.9474   19.1879   21.4717 C   0  0  0  0  0  0  0  0  0  0  0  0
    3.8520   18.6132   20.5731 C   0  0  0  0  0  0  0  0  0  0  0  0
   -0.0228   17.9997   17.6360 C   0  0  0  0  0  0  0  0  0  0  0  0
    0.8292   18.8745   18.3190 C   0  0  0  0  0  0  0  0  0  0  0  0
    1.5646   18.4238   19.4107 C   0  0  0  0  0  0  0  0  0  0  0  0
    1.4464   17.0948   19.8262 C   0  0  0  0  0  0  0  0  0  0  0  0
    0.6130   16.1739   19.1523 C   0  0  0  0  0  0  0  0  0  0  0  0
    0.4978   14.8146   19.5315 C   0  0  0  0  0  0  0  0  0  0  0  0
   -0.3467   13.9366   18.8533 C   0  0  0  0  0  0  0  0  0  0  0  0
   -1.0935   14.3947   17.7786 C   0  0  0  0  0  0  0  0  0  0  0  0
   -0.9894   15.7282   17.3807 C   0  0  0  0  0  0  0  0  0  0  0  0
   -0.1414   16.6423   18.0458 C   0  0  0  0  0  0  0  0  0  0  0  0
   -2.1089   18.8423   16.8142 C   0  0  0  0  0  0  0  0  0  0  0  0
   -0.7916   18.3732   16.5575 O   0  0  0  0  0  0  0  0  0  0  0  0
    5.9957   19.9504   20.6738 C   0  0  0  0  0  0  0  0  0  0  0  0
    5.7276   21.7175   20.7305 S   0  0  0  0  0  0  0  0  0  0  0  0
    5.4936   21.9669   22.3717 N   0  0  0  0  0  0  0  0  0  0  0  0
    6.9540   22.4061   20.4078 O   0  0  0  0  0  0  0  0  0  0  0  0
    4.4657   22.0430   20.1108 O   0  0  0  0  0  0  0  0  0  0  0  0
    4.5527   22.3299   22.5388 H   0  0  0  0  0  0  0  0  0  0  0  0
    6.2291   22.5735   22.7409 H   0  0  0  0  0  0  0  0  0  0  0  0
 18 19  1  0  0  0
 19  8  1  0  0  0
  8  9  2  0  0  0
  9 10  1  0  0  0
 10 11  2  0  0  0
 11  1  1  0  0  0
  1  2  2  0  0  0
  1  3  1  0  0  0
  3  4  1  0  0  0
  4  5  1  0  0  0
  5  6  1  0  0  0
  6 20  1  0  0  0
 20 21  1  0  0  0
 21 22  1  0  0  0
 21 23  2  0  0  0
 21 24  2  0  0  0
  6  7  1  0  0  0
 11 12  1  0  0  0
 12 13  2  0  0  0
 13 14  1  0  0  0
 14 15  2  0  0  0
 15 16  1  0  0  0
 16 17  2  0  0  0
 17  8  1  0  0  0
  7  3  1  0  0  0
 17 12  1  0  0  0
 22 25  1  0  0  0
 22 26  1  0  0  0
M  END
> <minimizedAffinity>
-10.00057

$$$$
OCNT-2313618


 22 25  0  0  0  0  0  0  0  0999 V2000
    2.9192   16.4964   21.6602 O   0  0  0  0  0  0  0  0  0  0  0  0
    2.9946   17.5183   20.9826 C   0  0  0  0  0  0  0  0  0  0  0  0
    2.0428   17.8465   20.0350 N   0  0  0  0  0  0  0  0  0  0  0  0
    2.0343   18.7906   19.6886 H   0  0  0  0  0  0  0  0  0  0  0  0
    4.0908   18.4918   21.1235 C   0  0  0  0  0  0  0  0  0  0  0  0
    5.2610   18.3663   21.8774 C   0  0  0  0  0  0  0  0  0  0  0  0
    5.9085   19.5261   21.6689 N   0  0  0  0  0  0  0  0  0  0  0  0
    7.1528   20.1309   22.0897 C   0  0  0  0  0  0  0  0  0  0  0  0
    7.2959   21.2955   21.0911 C   0  0  0  0  0  0  0  0  0  0  0  0
    5.8649   21.5964   20.5758 C   0  0  0  0  0  0  0  0  0  0  0  0
    5.1846   20.3142   20.8355 C   0  0  0  0  0  0  0  0  0  0  0  0
    4.0708   19.7363   20.4788 N   0  0  0  0  0  0  0  0  0  0  0  0
    0.8206   17.0852   19.9110 C   0  0  0  0  0  0  0  0  0  0  0  0
    0.0043   17.6214   18.7469 C   0  0  0  0  0  0  0  0  0  0  0  0
    0.6458   18.3539   17.7393 C   0  0  0  0  0  0  0  0  0  0  0  0
   -0.0965   18.8090   16.6610 C   0  0  0  0  0  0  0  0  0  0  0  0
   -1.4192   18.5859   16.5134 N   0  0  0  0  0  0  0  0  0  0  0  0
   -2.0206   17.8652   17.4818 C   0  0  0  0  0  0  0  0  0  0  0  0
   -1.3630   17.3620   18.5947 C   0  0  0  0  0  0  0  0  0  0  0  0
    1.0870   15.6009   19.7698 C   0  0  0  0  0  0  0  0  0  0  0  0
    0.6335   14.5449   20.7570 C   0  0  0  0  0  0  0  0  0  0  0  0
   -0.0315   14.6468   19.4126 C   0  0  0  0  0  0  0  0  0  0  0  0
  1  2  2  0  0  0
  2  3  1  0  0  0
  3 13  1  0  0  0
 13 14  1  0  0  0
 14 15  2  0  0  0
 15 16  1  0  0  0
 16 17  2  0  0  0
 17 18  1  0  0  0
 18 19  2  0  0  0
 13 20  1  0  0  0
 20 21  1  0  0  0
 21 22  1  0  0  0
  2  5  1  0  0  0
  5  6  2  0  0  0
  6  7  1  0  0  0
  7  8  1  0  0  0
  8  9  1  0  0  0
  9 10  1  0  0  0
 10 11  1  0  0  0
 11 12  2  0  0  0
 19 14  1  0  0  0
 22 20  1  0  0  0
 12  5  1  0  0  0
 11  7  1  0  0  0
  3  4  1  0  0  0
M  END
> <minimizedAffinity>
-10.09542

$$$$
OCNT-2313623


 25 27  0  0  0  0  0  0  0  0999 V2000
    2.1754   18.5307   20.3027 N   0  0  0  0  0  0  0  0  0  0  0  0
    3.1414   17.7582   20.8820 C   0  0  0  0  0  0  0  0  0  0  0  0
    3.0626   16.4176   21.2440 C   0  0  0  0  0  0  0  0  0  0  0  0
    4.3504   16.1268   21.7285 C   0  0  0  0  0  0  0  0  0  0  0  0
    5.2042   17.1393   21.6148 N   0  0  0  0  0  0  0  0  0  0  0  0
    4.4413   18.1917   21.1955 N   0  0  0  0  0  0  0  0  0  0  0  0
    1.2830   18.0632   20.1075 H   0  0  0  0  0  0  0  0  0  0  0  0
    2.4343   19.1426   19.5300 H   0  0  0  0  0  0  0  0  0  0  0  0
    1.8716   15.5840   21.1263 C   0  0  0  0  0  0  0  0  0  0  0  0
    1.5367   14.8365   22.0480 O   0  0  0  0  0  0  0  0  0  0  0  0
    1.0901   15.6653   19.9822 N   0  0  0  0  0  0  0  0  0  0  0  0
   -0.0878   14.8251   19.8580 C   0  0  0  0  0  0  0  0  0  0  0  0
   -0.6608   15.1612   18.4929 C   0  0  0  0  0  0  0  0  0  0  0  0
   -0.3192   16.6430   18.3349 C   0  0  0  0  0  0  0  0  0  0  0  0
    1.0761   16.7152   18.9726 C   0  0  0  0  0  0  0  0  0  0  0  0
   -0.2582   17.0560   16.9795 O   0  0  0  0  0  0  0  0  0  0  0  0
   -0.7508   18.3687   16.7861 C   0  0  0  0  0  0  0  0  0  0  0  0
    0.2507   19.2500   17.0043 F   0  0  0  0  0  0  0  0  0  0  0  0
   -1.6911   18.5912   17.7329 F   0  0  0  0  0  0  0  0  0  0  0  0
    5.0144   19.5111   21.1536 C   0  0  0  0  0  0  0  0  0  0  0  0
    6.1759   19.8078   21.8647 C   0  0  0  0  0  0  0  0  0  0  0  0
    6.7037   21.0981   21.7937 C   0  0  0  0  0  0  0  0  0  0  0  0
    6.0714   22.0564   21.0131 C   0  0  0  0  0  0  0  0  0  0  0  0
    4.9352   21.6835   20.3207 C   0  0  0  0  0  0  0  0  0  0  0  0
    4.4015   20.4452   20.3703 N   0  0  0  0  0  0  0  0  0  0  0  0
  1  2  1  0  0  0
  2  3  2  0  0  0
  3  9  1  0  0  0
  9 10  2  0  0  0
  9 11  1  0  0  0
 11 12  1  0  0  0
 12 13  1  0  0  0
 13 14  1  0  0  0
 14 16  1  0  0  0
 16 17  1  0  0  0
 17 18  1  0  0  0
 17 19  1  0  0  0
 14 15  1  0  0  0
  3  4  1  0  0  0
  4  5  2  0  0  0
  5  6  1  0  0  0
  6 20  1  0  0  0
 20 21  2  0  0  0
 21 22  1  0  0  0
 22 23  2  0  0  0
 23 24  1  0  0  0
 24 25  2  0  0  0
  6  2  1  0  0  0
 25 20  1  0  0  0
 15 11  1  0  0  0
  1  7  1  0  0  0
  1  8  1  0  0  0
M  END
> <minimizedAffinity>
-10.52088

$$$$
OCNT-2313625


 25 27  0  0  0  0  0  0  0  0999 V2000
    2.9379   16.2243   21.2770 C   0  0  0  0  0  0  0  0  0  0  0  0
    2.8434   15.1108   22.1201 C   0  0  0  0  0  0  0  0  0  0  0  0
    1.7196   14.2910   22.0613 C   0  0  0  0  0  0  0  0  0  0  0  0
    0.7250   14.6080   21.1525 C   0  0  0  0  0  0  0  0  0  0  0  0
    0.7872   15.6627   20.3115 N   0  0  0  0  0  0  0  0  0  0  0  0
    1.8945   16.4483   20.3827 C   0  0  0  0  0  0  0  0  0  0  0  0
    5.2125   16.5348   21.6275 O   0  0  0  0  0  0  0  0  0  0  0  0
    4.1446   17.0839   21.3784 C   0  0  0  0  0  0  0  0  0  0  0  0
    3.9361   18.4433   21.2309 N   0  0  0  0  0  0  0  0  0  0  0  0
    2.9822   18.7518   21.0740 H   0  0  0  0  0  0  0  0  0  0  0  0
    4.9050   19.4693   21.2813 C   0  0  0  0  0  0  0  0  0  0  0  0
    4.6815   20.5998   20.4938 C   0  0  0  0  0  0  0  0  0  0  0  0
    5.6160   21.6227   20.5187 C   0  0  0  0  0  0  0  0  0  0  0  0
    6.7391   21.5933   21.2629 N   0  0  0  0  0  0  0  0  0  0  0  0
    6.9332   20.4897   22.0152 C   0  0  0  0  0  0  0  0  0  0  0  0
    6.0576   19.4156   22.0578 C   0  0  0  0  0  0  0  0  0  0  0  0
    2.0165   17.5027   19.4816 O   0  0  0  0  0  0  0  0  0  0  0  0
    0.8784   17.8359   18.7872 C   0  0  0  0  0  0  0  0  0  0  0  0
    0.1892   16.8262   18.1113 C   0  0  0  0  0  0  0  0  0  0  0  0
   -0.9493   17.1459   17.3707 C   0  0  0  0  0  0  0  0  0  0  0  0
   -1.3800   18.4716   17.2984 C   0  0  0  0  0  0  0  0  0  0  0  0
   -2.7839   18.8602   16.3822 Cl  0  0  0  0  0  0  0  0  0  0  0  0
   -0.6807   19.4863   17.9517 C   0  0  0  0  0  0  0  0  0  0  0  0
    0.4569   19.1668   18.6924 C   0  0  0  0  0  0  0  0  0  0  0  0
    1.3394   20.4397   19.4558 Cl  0  0  0  0  0  0  0  0  0  0  0  0
  7  8  2  0  0  0
  8  9  1  0  0  0
  9 11  1  0  0  0
 11 12  2  0  0  0
 12 13  1  0  0  0
 13 14  2  0  0  0
 14 15  1  0  0  0
 15 16  2  0  0  0
  8  1  1  0  0  0
  1  2  1  0  0  0
  2  3  2  0  0  0
  3  4  1  0  0  0
  4  5  2  0  0  0
  5  6  1  0  0  0
  6 17  1  0  0  0
 17 18  1  0  0  0
 18 19  1  0  0  0
 19 20  2  0  0  0
 20 21  1  0  0  0
 21 22  1  0  0  0
 21 23  2  0  0  0
 23 24  1  0  0  0
 24 25  1  0  0  0
 16 11  1  0  0  0
  6  1  2  0  0  0
 24 18  2  0  0  0
  9 10  1  0  0  0
M  END
> <minimizedAffinity>
-10.31737

$$$$
OCNT-2313637


 24 27  0  0  0  0  0  0  0  0999 V2000
    1.3756   15.6080   20.3120 C   0  0  0  0  0  0  0  0  0  0  0  0
    1.4886   14.6170   21.2740 C   0  0  0  0  0  0  0  0  0  0  0  0
    2.4396   14.6198   22.2349 N   0  0  0  0  0  0  0  0  0  0  0  0
    3.2820   15.6847   22.2514 C   0  0  0  0  0  0  0  0  0  0  0  0
    3.2390   16.7553   21.3531 C   0  0  0  0  0  0  0  0  0  0  0  0
    2.2459   16.6988   20.3662 C   0  0  0  0  0  0  0  0  0  0  0  0
   -0.4681   14.6131   19.3442 O   0  0  0  0  0  0  0  0  0  0  0  0
    0.3155   15.5591   19.2914 C   0  0  0  0  0  0  0  0  0  0  0  0
    0.2732   16.5864   18.3504 N   0  0  0  0  0  0  0  0  0  0  0  0
    0.6587   17.9821   18.5982 C   0  0  0  0  0  0  0  0  0  0  0  0
    0.6981   18.8631   17.3511 C   0  0  0  0  0  0  0  0  0  0  0  0
   -0.5954   18.9412   16.5316 C   0  0  0  0  0  0  0  0  0  0  0  0
   -1.8730   18.6387   17.3112 C   0  0  0  0  0  0  0  0  0  0  0  0
   -1.9569   17.2080   17.8519 C   0  0  0  0  0  0  0  0  0  0  0  0
   -0.8271   16.4281   17.4558 O   0  0  0  0  0  0  0  0  0  0  0  0
    4.1785   17.8835   21.4409 C   0  0  0  0  0  0  0  0  0  0  0  0
    5.3386   17.7999   22.2496 C   0  0  0  0  0  0  0  0  0  0  0  0
    6.2407   18.8650   22.3484 C   0  0  0  0  0  0  0  0  0  0  0  0
    5.9738   20.0046   21.6233 C   0  0  0  0  0  0  0  0  0  0  0  0
    6.7594   21.1269   21.6277 O   0  0  0  0  0  0  0  0  0  0  0  0
    6.2324   21.9152   20.5339 C   0  0  0  0  0  0  0  0  0  0  0  0
    4.7975   21.4735   20.2413 C   0  0  0  0  0  0  0  0  0  0  0  0
    4.8481   20.1157   20.8267 C   0  0  0  0  0  0  0  0  0  0  0  0
    3.9402   19.0739   20.7263 C   0  0  0  0  0  0  0  0  0  0  0  0
  7  8  2  0  0  0
  8  1  1  0  0  0
  1  2  1  0  0  0
  2  3  2  0  0  0
  3  4  1  0  0  0
  4  5  2  0  0  0
  5 16  1  0  0  0
 16 17  1  0  0  0
 17 18  2  0  0  0
 18 19  1  0  0  0
 19 20  1  0  0  0
 20 21  1  0  0  0
 21 22  1  0  0  0
 22 23  1  0  0  0
 23 24  1  0  0  0
  5  6  1  0  0  0
  8  9  1  0  0  0
  9 10  1  0  0  0
 10 11  1  0  0  0
 11 12  1  0  0  0
 12 13  1  0  0  0
 13 14  1  0  0  0
 14 15  1  0  0  0
  6  1  2  0  0  0
 15  9  1  0  0  0
 24 16  2  0  0  0
 23 19  2  0  0  0
M  END
> <minimizedAffinity>
-11.30397

$$$$
OCNT-2313641


 27 30  0  0  0  0  0  0  0  0999 V2000
    3.3298   19.5402   18.9508 C   0  0  0  0  0  0  0  0  0  0  0  0
    3.9084   19.8826   17.9206 O   0  0  0  0  0  0  0  0  0  0  0  0
    1.9609   19.3680   19.0104 N   0  0  0  0  0  0  0  0  0  0  0  0
    1.1369   19.6191   17.8430 C   0  0  0  0  0  0  0  0  0  0  0  0
   -0.2929   19.4430   18.3288 C   0  0  0  0  0  0  0  0  0  0  0  0
   -0.1807   18.3816   19.4399 C   0  0  0  0  0  0  0  0  0  0  0  0
   -1.2212   18.5968   20.4024 O   0  0  0  0  0  0  0  0  0  0  0  0
    1.1928   18.7210   20.0714 C   0  0  0  0  0  0  0  0  0  0  0  0
   -1.1378   19.5079   20.7323 H   0  0  0  0  0  0  0  0  0  0  0  0
    5.0036   16.0392   22.1443 C   0  0  0  0  0  0  0  0  0  0  0  0
    5.0135   17.4905   21.7360 C   0  0  0  0  0  0  0  0  0  0  0  0
    5.8543   18.3906   22.4322 C   0  0  0  0  0  0  0  0  0  0  0  0
    5.7923   19.6755   21.9029 C   0  0  0  0  0  0  0  0  0  0  0  0
    6.5152   20.7431   22.3538 C   0  0  0  0  0  0  0  0  0  0  0  0
    6.1608   21.7690   21.5291 N   0  0  0  0  0  0  0  0  0  0  0  0
    5.2473   21.4444   20.5949 N   0  0  0  0  0  0  0  0  0  0  0  0
    4.9934   20.1333   20.7865 C   0  0  0  0  0  0  0  0  0  0  0  0
    4.1541   19.2202   20.1186 C   0  0  0  0  0  0  0  0  0  0  0  0
    4.2137   17.8907   20.6128 C   0  0  0  0  0  0  0  0  0  0  0  0
    6.5042   22.7237   21.5455 H   0  0  0  0  0  0  0  0  0  0  0  0
   -0.3221   16.9699   18.8703 C   0  0  0  0  0  0  0  0  0  0  0  0
   -0.7780   16.7228   17.5616 C   0  0  0  0  0  0  0  0  0  0  0  0
   -0.9168   15.4171   17.0816 C   0  0  0  0  0  0  0  0  0  0  0  0
   -0.6073   14.3444   17.9057 C   0  0  0  0  0  0  0  0  0  0  0  0
   -0.7418   13.0946   17.4430 F   0  0  0  0  0  0  0  0  0  0  0  0
   -0.1657   14.5512   19.2036 C   0  0  0  0  0  0  0  0  0  0  0  0
   -0.0283   15.8558   19.6834 C   0  0  0  0  0  0  0  0  0  0  0  0
 10 11  1  0  0  0
 11 12  2  0  0  0
 12 13  1  0  0  0
 13 14  2  0  0  0
 14 15  1  0  0  0
 15 16  1  0  0  0
 16 17  2  0  0  0
 17 18  1  0  0  0
 18  1  1  0  0  0
  1  2  2  0  0  0
  1  3  1  0  0  0
  3  4  1  0  0  0
  4  5  1  0  0  0
  5  6  1  0  0  0
  6  7  1  0  0  0
  6 21  1  0  0  0
 21 22  1  0  0  0
 22 23  2  0  0  0
 23 24  1  0  0  0
 24 25  1  0  0  0
 24 26  2  0  0  0
 26 27  1  0  0  0
  6  8  1  0  0  0
 18 19  2  0  0  0
 19 11  1  0  0  0
 17 13  1  0  0  0
  8  3  1  0  0  0
 27 21  2  0  0  0
 15 20  1  0  0  0
  7  9  1  0  0  0
M  END
> <minimizedAffinity>
-6.23461

$$$$
OCNT-2313643


 29 32  0  0  0  0  0  0  0  0999 V2000
    3.9861   18.2743   21.1299 C   0  0  0  0  0  0  0  0  0  0  0  0
    4.9242   18.3999   22.0401 N   0  0  0  0  0  0  0  0  0  0  0  0
    5.5673   19.5780   21.7745 C   0  0  0  0  0  0  0  0  0  0  0  0
    6.6342   20.1862   22.4523 C   0  0  0  0  0  0  0  0  0  0  0  0
    7.1256   21.4092   21.9790 C   0  0  0  0  0  0  0  0  0  0  0  0
    6.5662   22.0136   20.8522 C   0  0  0  0  0  0  0  0  0  0  0  0
    5.5039   21.4184   20.1612 C   0  0  0  0  0  0  0  0  0  0  0  0
    5.0247   20.1975   20.6556 C   0  0  0  0  0  0  0  0  0  0  0  0
    4.0282   19.3356   20.2483 N   0  0  0  0  0  0  0  0  0  0  0  0
    4.3552   15.5032   21.8799 O   0  0  0  0  0  0  0  0  0  0  0  0
    3.3128   15.9681   21.4301 C   0  0  0  0  0  0  0  0  0  0  0  0
    3.0589   17.2659   21.0248 N   0  0  0  0  0  0  0  0  0  0  0  0
    2.1037   17.4950   20.7645 H   0  0  0  0  0  0  0  0  0  0  0  0
    2.0617   15.0916   21.3180 C   0  0  0  0  0  0  0  0  0  0  0  0
    1.5103   14.8565   22.6404 N   0  0  0  0  0  0  0  0  0  0  0  0
    0.3119   14.2043   22.7955 C   0  0  0  0  0  0  0  0  0  0  0  0
   -0.3133   13.7341   21.8503 O   0  0  0  0  0  0  0  0  0  0  0  0
    1.8353   15.4635   23.3815 H   0  0  0  0  0  0  0  0  0  0  0  0
   -0.2572   14.1443   24.1676 C   0  0  0  0  0  0  0  0  0  0  0  0
   -1.3504   13.1465   24.4784 C   0  0  0  0  0  0  0  0  0  0  0  0
   -1.6395   14.6185   24.5472 C   0  0  0  0  0  0  0  0  0  0  0  0
    3.2427   19.4978   19.0362 C   0  0  0  0  0  0  0  0  0  0  0  0
    1.7922   19.8779   19.3288 C   0  0  0  0  0  0  0  0  0  0  0  0
    0.8102   18.8860   18.7530 C   0  0  0  0  0  0  0  0  0  0  0  0
    0.2478   19.1138   17.4978 C   0  0  0  0  0  0  0  0  0  0  0  0
   -0.6692   18.1939   16.9925 C   0  0  0  0  0  0  0  0  0  0  0  0
   -1.0118   17.0830   17.7544 C   0  0  0  0  0  0  0  0  0  0  0  0
   -0.4186   16.9370   18.9966 C   0  0  0  0  0  0  0  0  0  0  0  0
    0.4804   17.8093   19.5070 N   0  0  0  0  0  0  0  0  0  0  0  0
 10 11  2  0  0  0
 11 14  1  0  0  0
 14 15  1  0  0  0
 15 16  1  0  0  0
 16 17  2  0  0  0
 16 19  1  0  0  0
 19 20  1  0  0  0
 20 21  1  0  0  0
 11 12  1  0  0  0
 12  1  1  0  0  0
  1  2  2  0  0  0
  2  3  1  0  0  0
  3  4  2  0  0  0
  4  5  1  0  0  0
  5  6  2  0  0  0
  6  7  1  0  0  0
  7  8  2  0  0  0
  8  9  1  0  0  0
  9 22  1  0  0  0
 22 23  1  0  0  0
 23 24  1  0  0  0
 24 25  2  0  0  0
 25 26  1  0  0  0
 26 27  2  0  0  0
 27 28  1  0  0  0
 28 29  2  0  0  0
 21 19  1  0  0  0
  9  1  1  0  0  0
 29 24  1  0  0  0
  8  3  1  0  0  0
 15 18  1  0  0  0
 12 13  1  0  0  0
M  END
> <minimizedAffinity>
-10.19985

$$$$
OCNT-2313644


 22 24  0  0  0  0  0  0  0  0999 V2000
    3.4260   17.5194   22.1579 N   0  0  0  0  0  0  0  0  0  0  0  0
    3.0725   17.1346   23.0361 H   0  0  0  0  0  0  0  0  0  0  0  0
    4.9584   18.1783   22.3136 S   0  0  0  0  0  0  0  0  0  0  0  0
    5.8832   17.3015   21.6377 O   0  0  0  0  0  0  0  0  0  0  0  0
    5.1456   18.6061   23.6799 O   0  0  0  0  0  0  0  0  0  0  0  0
    7.2479   20.4902   22.1895 C   0  0  0  0  0  0  0  0  0  0  0  0
    6.0293   20.5413   21.4220 N   0  0  0  0  0  0  0  0  0  0  0  0
    5.7978   21.5971   20.6181 N   0  0  0  0  0  0  0  0  0  0  0  0
    4.6562   21.3751   19.9843 N   0  0  0  0  0  0  0  0  0  0  0  0
    4.1677   20.1784   20.4155 C   0  0  0  0  0  0  0  0  0  0  0  0
    5.0041   19.6371   21.3683 C   0  0  0  0  0  0  0  0  0  0  0  0
    3.1435   16.7199   20.9469 C   0  0  0  0  0  0  0  0  0  0  0  0
    1.6534   16.3015   20.8931 C   0  0  0  0  0  0  0  0  0  0  0  0
    1.5393   14.7765   21.1041 C   0  0  0  0  0  0  0  0  0  0  0  0
    0.1491   14.2664   20.7584 C   0  0  0  0  0  0  0  0  0  0  0  0
   -0.1299   14.5129   19.2803 C   0  0  0  0  0  0  0  0  0  0  0  0
    0.0929   15.9539   18.8932 C   0  0  0  0  0  0  0  0  0  0  0  0
   -0.5358   16.4417   17.7362 C   0  0  0  0  0  0  0  0  0  0  0  0
   -0.3895   17.7728   17.3532 C   0  0  0  0  0  0  0  0  0  0  0  0
    0.3786   18.6332   18.1279 C   0  0  0  0  0  0  0  0  0  0  0  0
    1.0220   18.1556   19.2702 C   0  0  0  0  0  0  0  0  0  0  0  0
    0.9242   16.8040   19.6488 C   0  0  0  0  0  0  0  0  0  0  0  0
  6  7  1  0  0  0
  7  8  1  0  0  0
  8  9  2  0  0  0
  9 10  1  0  0  0
 10 11  2  0  0  0
 11  3  1  0  0  0
  3  4  2  0  0  0
  3  5  2  0  0  0
  3  1  1  0  0  0
  1 12  1  0  0  0
 12 13  1  0  0  0
 13 14  1  0  0  0
 14 15  1  0  0  0
 15 16  1  0  0  0
 16 17  1  0  0  0
 17 18  2  0  0  0
 18 19  1  0  0  0
 19 20  2  0  0  0
 20 21  1  0  0  0
 21 22  2  0  0  0
 11  7  1  0  0  0
 22 13  1  0  0  0
 22 17  1  0  0  0
  1  2  1  0  0  0
M  END
> <minimizedAffinity>
-10.36870

$$$$
OCNT-2313645


 25 27  0  0  0  0  0  0  0  0999 V2000
    0.8880   20.8617   19.4722 O   0  0  0  0  0  0  0  0  0  0  0  0
    1.6820   19.9291   19.5466 C   0  0  0  0  0  0  0  0  0  0  0  0
    1.2886   18.6212   19.3954 N   0  0  0  0  0  0  0  0  0  0  0  0
    1.9556   17.8820   19.5926 H   0  0  0  0  0  0  0  0  0  0  0  0
   -0.1083   18.2727   19.2245 C   0  0  0  0  0  0  0  0  0  0  0  0
   -0.7216   18.8204   17.9164 C   0  0  0  0  0  0  0  0  0  0  0  0
   -0.6612   17.7886   16.8926 O   0  0  0  0  0  0  0  0  0  0  0  0
   -0.5600   16.6275   17.6117 C   0  0  0  0  0  0  0  0  0  0  0  0
   -0.7057   15.3654   17.0740 C   0  0  0  0  0  0  0  0  0  0  0  0
   -0.5707   14.2813   17.9377 C   0  0  0  0  0  0  0  0  0  0  0  0
   -0.7117   13.0389   17.4567 F   0  0  0  0  0  0  0  0  0  0  0  0
   -0.2908   14.4568   19.2960 C   0  0  0  0  0  0  0  0  0  0  0  0
   -0.1377   15.7444   19.7988 C   0  0  0  0  0  0  0  0  0  0  0  0
    0.1515   15.9274   21.0925 F   0  0  0  0  0  0  0  0  0  0  0  0
   -0.2728   16.8261   18.9527 C   0  0  0  0  0  0  0  0  0  0  0  0
    3.1303   20.1851   19.8126 C   0  0  0  0  0  0  0  0  0  0  0  0
    3.5527   21.5246   19.8070 C   0  0  0  0  0  0  0  0  0  0  0  0
    4.8874   21.8544   20.0528 C   0  0  0  0  0  0  0  0  0  0  0  0
    5.8160   20.8498   20.3116 C   0  0  0  0  0  0  0  0  0  0  0  0
    5.4152   19.5144   20.3116 C   0  0  0  0  0  0  0  0  0  0  0  0
    4.0832   19.1784   20.0384 C   0  0  0  0  0  0  0  0  0  0  0  0
    3.7207   17.8562   20.0591 O   0  0  0  0  0  0  0  0  0  0  0  0
    3.9662   17.2825   21.3419 C   0  0  0  0  0  0  0  0  0  0  0  0
    2.8776   16.5651   21.7128 F   0  0  0  0  0  0  0  0  0  0  0  0
    4.9816   16.3970   21.1879 F   0  0  0  0  0  0  0  0  0  0  0  0
  1  2  2  0  0  0
  2  3  1  0  0  0
  3  5  1  0  0  0
  5  6  1  0  0  0
  6  7  1  0  0  0
  7  8  1  0  0  0
  8  9  2  0  0  0
  9 10  1  0  0  0
 10 11  1  0  0  0
 10 12  2  0  0  0
 12 13  1  0  0  0
 13 14  1  0  0  0
 13 15  2  0  0  0
  2 16  1  0  0  0
 16 17  2  0  0  0
 17 18  1  0  0  0
 18 19  2  0  0  0
 19 20  1  0  0  0
 20 21  2  0  0  0
 21 22  1  0  0  0
 22 23  1  0  0  0
 23 24  1  0  0  0
 23 25  1  0  0  0
 15  5  1  0  0  0
 21 16  1  0  0  0
 15  8  1  0  0  0
  3  4  1  0  0  0
M  END
> <minimizedAffinity>
-9.14787

$$$$
OCNT-2313657


 26 28  0  0  0  0  0  0  0  0999 V2000
    1.9536   16.1686   20.8123 N   0  0  0  0  0  0  0  0  0  0  0  0
    2.6987   15.5101   21.7751 C   0  0  0  0  0  0  0  0  0  0  0  0
    2.3880   14.4332   22.2827 O   0  0  0  0  0  0  0  0  0  0  0  0
    3.8501   16.1207   22.1857 N   0  0  0  0  0  0  0  0  0  0  0  0
    4.2984   17.3450   21.6986 C   0  0  0  0  0  0  0  0  0  0  0  0
    5.4956   17.8866   22.1684 C   0  0  0  0  0  0  0  0  0  0  0  0
    5.9408   19.1208   21.6787 C   0  0  0  0  0  0  0  0  0  0  0  0
    5.1746   19.8113   20.7132 C   0  0  0  0  0  0  0  0  0  0  0  0
    3.9769   19.2560   20.2531 C   0  0  0  0  0  0  0  0  0  0  0  0
    3.5454   18.0219   20.7504 C   0  0  0  0  0  0  0  0  0  0  0  0
    2.2836   17.4141   20.2839 C   0  0  0  0  0  0  0  0  0  0  0  0
    1.5926   18.0303   19.4752 O   0  0  0  0  0  0  0  0  0  0  0  0
    4.3800   15.6132   22.8827 H   0  0  0  0  0  0  0  0  0  0  0  0
    7.1014   19.7379   22.0754 O   0  0  0  0  0  0  0  0  0  0  0  0
    6.9951   20.9037   22.8797 C   0  0  0  0  0  0  0  0  0  0  0  0
    5.6834   21.0136   20.2891 O   0  0  0  0  0  0  0  0  0  0  0  0
    4.7902   22.1156   20.2006 C   0  0  0  0  0  0  0  0  0  0  0  0
    0.7429   15.5219   20.3278 C   0  0  0  0  0  0  0  0  0  0  0  0
   -1.1188   17.8179   17.1570 C   0  0  0  0  0  0  0  0  0  0  0  0
   -0.4502   16.6221   16.8701 C   0  0  0  0  0  0  0  0  0  0  0  0
    0.1440   15.8785   17.8926 C   0  0  0  0  0  0  0  0  0  0  0  0
    0.0802   16.3162   19.2222 C   0  0  0  0  0  0  0  0  0  0  0  0
   -0.5772   17.5208   19.5053 C   0  0  0  0  0  0  0  0  0  0  0  0
   -1.1710   18.2642   18.4828 C   0  0  0  0  0  0  0  0  0  0  0  0
   -3.1371   19.1125   16.4223 C   0  0  0  0  0  0  0  0  0  0  0  0
   -1.7433   18.6297   16.0514 C   0  0  0  0  0  0  0  0  0  0  0  0
 25 26  1  0  0  0
 26 19  1  0  0  0
 19 20  1  0  0  0
 20 21  2  0  0  0
 21 22  1  0  0  0
 22 18  1  0  0  0
 18  1  1  0  0  0
  1  2  1  0  0  0
  2  3  2  0  0  0
  2  4  1  0  0  0
  4  5  1  0  0  0
  5  6  1  0  0  0
  6  7  2  0  0  0
  7 14  1  0  0  0
 14 15  1  0  0  0
  7  8  1  0  0  0
  8 16  1  0  0  0
 16 17  1  0  0  0
  8  9  2  0  0  0
  9 10  1  0  0  0
 10 11  1  0  0  0
 11 12  2  0  0  0
 22 23  2  0  0  0
 23 24  1  0  0  0
 24 19  2  0  0  0
 11  1  1  0  0  0
 10  5  2  0  0  0
  4 13  1  0  0  0
M  END
> <minimizedAffinity>
-8.10206

$$$$
OCNT-2313669


 25 27  0  0  0  0  0  0  0  0999 V2000
    1.8838   20.0773   18.7711 C   0  0  0  0  0  0  0  0  0  0  0  0
    4.0765   20.5468   19.7939 C   0  0  0  0  0  0  0  0  0  0  0  0
    4.5935   19.6311   19.1571 O   0  0  0  0  0  0  0  0  0  0  0  0
    2.7386   20.8731   19.6365 N   0  0  0  0  0  0  0  0  0  0  0  0
    2.2779   21.3360   20.4101 H   0  0  0  0  0  0  0  0  0  0  0  0
    5.6689   18.5182   21.8662 C   0  0  0  0  0  0  0  0  0  0  0  0
    5.8899   19.8924   22.4908 C   0  0  0  0  0  0  0  0  0  0  0  0
    7.2586   20.4950   22.1239 C   0  0  0  0  0  0  0  0  0  0  0  0
    7.3199   20.9133   20.7167 N   0  0  0  0  0  0  0  0  0  0  0  0
    6.2213   21.8588   20.4611 C   0  0  0  0  0  0  0  0  0  0  0  0
    4.8186   21.3599   20.8912 C   0  0  0  0  0  0  0  0  0  0  0  0
    4.8190   20.8088   22.2122 O   0  0  0  0  0  0  0  0  0  0  0  0
    8.2135   21.3709   20.5399 H   0  0  0  0  0  0  0  0  0  0  0  0
    0.6930   19.4692   19.5157 C   0  0  0  0  0  0  0  0  0  0  0  0
    0.1604   18.2219   18.8736 C   0  0  0  0  0  0  0  0  0  0  0  0
   -0.5729   18.1559   17.7036 C   0  0  0  0  0  0  0  0  0  0  0  0
   -0.8623   16.8433   17.4492 N   0  0  0  0  0  0  0  0  0  0  0  0
   -0.3400   16.0409   18.4369 C   0  0  0  0  0  0  0  0  0  0  0  0
   -0.3873   14.6515   18.5995 C   0  0  0  0  0  0  0  0  0  0  0  0
   -1.2040   13.6506   17.4664 Cl  0  0  0  0  0  0  0  0  0  0  0  0
    0.2468   14.0920   19.7104 C   0  0  0  0  0  0  0  0  0  0  0  0
    0.9108   14.9015   20.6292 C   0  0  0  0  0  0  0  0  0  0  0  0
    0.9530   16.2909   20.4564 C   0  0  0  0  0  0  0  0  0  0  0  0
    0.3152   16.8771   19.3424 C   0  0  0  0  0  0  0  0  0  0  0  0
   -1.3774   16.4952   16.6510 H   0  0  0  0  0  0  0  0  0  0  0  0
  6  7  1  0  0  0
  7  8  1  0  0  0
  8  9  1  0  0  0
  9 10  1  0  0  0
 10 11  1  0  0  0
 11  2  1  0  0  0
  2  3  2  0  0  0
  2  4  1  0  0  0
  4  1  1  0  0  0
  1 14  1  0  0  0
 14 15  1  0  0  0
 15 16  2  0  0  0
 16 17  1  0  0  0
 17 18  1  0  0  0
 18 19  2  0  0  0
 19 20  1  0  0  0
 19 21  1  0  0  0
 21 22  2  0  0  0
 22 23  1  0  0  0
 23 24  2  0  0  0
 11 12  1  0  0  0
 12  7  1  0  0  0
 24 15  1  0  0  0
 24 18  1  0  0  0
  9 13  1  0  0  0
  4  5  1  0  0  0
 17 25  1  0  0  0
M  END
> <minimizedAffinity>
-8.62058

$$$$
OCNT-2313682


 25 28  0  0  0  0  0  0  0  0999 V2000
    3.8398   14.3157   22.1152 O   0  0  0  0  0  0  0  0  0  0  0  0
    3.4135   15.4446   21.8872 C   0  0  0  0  0  0  0  0  0  0  0  0
    2.0915   15.7033   21.6511 N   0  0  0  0  0  0  0  0  0  0  0  0
    4.2235   16.5500   21.8689 N   0  0  0  0  0  0  0  0  0  0  0  0
    5.6510   16.4349   22.0988 C   0  0  0  0  0  0  0  0  0  0  0  0
    6.2109   17.8071   21.7452 C   0  0  0  0  0  0  0  0  0  0  0  0
    5.0698   18.7486   22.1627 C   0  0  0  0  0  0  0  0  0  0  0  0
    3.8228   17.9469   21.7374 C   0  0  0  0  0  0  0  0  0  0  0  0
    1.9074   16.4851   21.0404 H   0  0  0  0  0  0  0  0  0  0  0  0
    5.1139   20.1383   21.7081 N   0  0  0  0  0  0  0  0  0  0  0  0
    4.3354   20.4665   20.5166 C   0  0  0  0  0  0  0  0  0  0  0  0
    4.8398   21.8542   20.1378 C   0  0  0  0  0  0  0  0  0  0  0  0
    6.2024   21.9868   20.8079 C   0  0  0  0  0  0  0  0  0  0  0  0
    6.4643   20.6282   21.4366 C   0  0  0  0  0  0  0  0  0  0  0  0
    1.1538   14.6138   21.4983 C   0  0  0  0  0  0  0  0  0  0  0  0
    0.4296   14.7987   20.2033 C   0  0  0  0  0  0  0  0  0  0  0  0
   -0.1147   13.8055   19.4125 C   0  0  0  0  0  0  0  0  0  0  0  0
   -0.8185   14.4900   18.0107 S   0  0  0  0  0  0  0  0  0  0  0  0
   -0.3385   16.0560   18.5365 C   0  0  0  0  0  0  0  0  0  0  0  0
    0.3011   16.0850   19.6886 N   0  0  0  0  0  0  0  0  0  0  0  0
   -0.6076   17.2526   17.7796 C   0  0  0  0  0  0  0  0  0  0  0  0
    0.2612   18.0843   17.0838 C   0  0  0  0  0  0  0  0  0  0  0  0
   -0.5088   19.1262   16.5108 C   0  0  0  0  0  0  0  0  0  0  0  0
   -1.8063   18.8827   16.8823 C   0  0  0  0  0  0  0  0  0  0  0  0
   -1.8792   17.7641   17.6433 O   0  0  0  0  0  0  0  0  0  0  0  0
  1  2  2  0  0  0
  2  3  1  0  0  0
  3 15  1  0  0  0
 15 16  1  0  0  0
 16 17  2  0  0  0
 17 18  1  0  0  0
 18 19  1  0  0  0
 19 21  1  0  0  0
 21 22  2  0  0  0
 22 23  1  0  0  0
 23 24  2  0  0  0
 24 25  1  0  0  0
 19 20  2  0  0  0
  2  4  1  0  0  0
  4  5  1  0  0  0
  5  6  1  0  0  0
  6  7  1  0  0  0
  7 10  1  0  0  0
 10 11  1  0  0  0
 11 12  1  0  0  0
 12 13  1  0  0  0
 13 14  1  0  0  0
  7  8  1  0  0  0
 20 16  1  0  0  0
  8  4  1  0  0  0
 25 21  1  0  0  0
 14 10  1  0  0  0
  3  9  1  0  0  0
M  END
> <minimizedAffinity>
-7.99286

$$$$
OCNT-2313684


 25 28  0  0  0  0  0  0  0  0999 V2000
    3.3256   14.7858   22.0490 O   0  0  0  0  0  0  0  0  0  0  0  0
    3.0258   15.8788   21.5798 C   0  0  0  0  0  0  0  0  0  0  0  0
    1.7971   16.1250   21.0072 N   0  0  0  0  0  0  0  0  0  0  0  0
    1.6928   16.9311   20.4123 H   0  0  0  0  0  0  0  0  0  0  0  0
    3.9422   17.0001   21.5625 C   0  0  0  0  0  0  0  0  0  0  0  0
    5.0699   17.1759   22.3488 C   0  0  0  0  0  0  0  0  0  0  0  0
    5.6733   18.4159   22.0125 C   0  0  0  0  0  0  0  0  0  0  0  0
    6.8183   19.1027   22.4599 C   0  0  0  0  0  0  0  0  0  0  0  0
    7.1307   20.3488   21.9019 C   0  0  0  0  0  0  0  0  0  0  0  0
    6.3166   20.9036   20.9175 C   0  0  0  0  0  0  0  0  0  0  0  0
    6.7234   22.4394   20.2495 Cl  0  0  0  0  0  0  0  0  0  0  0  0
    5.1732   20.2434   20.4574 C   0  0  0  0  0  0  0  0  0  0  0  0
    4.8804   18.9969   21.0256 C   0  0  0  0  0  0  0  0  0  0  0  0
    3.8379   18.1318   20.7840 N   0  0  0  0  0  0  0  0  0  0  0  0
    3.0814   18.3256   20.1444 H   0  0  0  0  0  0  0  0  0  0  0  0
    0.8237   15.0691   20.8354 C   0  0  0  0  0  0  0  0  0  0  0  0
    0.1347   15.2776   19.5377 C   0  0  0  0  0  0  0  0  0  0  0  0
   -0.1204   16.4578   18.8677 C   0  0  0  0  0  0  0  0  0  0  0  0
    0.1515   17.8354   19.1181 C   0  0  0  0  0  0  0  0  0  0  0  0
   -0.2546   18.7650   18.2324 C   0  0  0  0  0  0  0  0  0  0  0  0
   -0.9653   18.4016   17.0188 C   0  0  0  0  0  0  0  0  0  0  0  0
   -1.2177   17.1043   16.7812 C   0  0  0  0  0  0  0  0  0  0  0  0
   -0.8023   16.1308   17.6915 N   0  0  0  0  0  0  0  0  0  0  0  0
   -0.9832   14.7881   17.5959 N   0  0  0  0  0  0  0  0  0  0  0  0
   -0.4122   14.2899   18.6915 C   0  0  0  0  0  0  0  0  0  0  0  0
  1  2  2  0  0  0
  2  3  1  0  0  0
  3 16  1  0  0  0
 16 17  1  0  0  0
 17 18  2  0  0  0
 18 19  1  0  0  0
 19 20  2  0  0  0
 20 21  1  0  0  0
 21 22  2  0  0  0
 22 23  1  0  0  0
 23 24  1  0  0  0
 24 25  2  0  0  0
  2  5  1  0  0  0
  5  6  2  0  0  0
  6  7  1  0  0  0
  7  8  2  0  0  0
  8  9  1  0  0  0
  9 10  2  0  0  0
 10 11  1  0  0  0
 10 12  1  0  0  0
 12 13  2  0  0  0
 13 14  1  0  0  0
 25 17  1  0  0  0
 14  5  1  0  0  0
 23 18  1  0  0  0
 13  7  1  0  0  0
  3  4  1  0  0  0
 14 15  1  0  0  0
M  END
> <minimizedAffinity>
-9.82626

$$$$
OCNT-2313685


 26 29  0  0  0  0  0  0  0  0999 V2000
    3.2467   19.4229   20.4877 N   0  0  0  0  0  0  0  0  0  0  0  0
    4.1035   18.2469   20.3643 C   0  0  0  0  0  0  0  0  0  0  0  0
    1.9465   19.4729   19.9587 C   0  0  0  0  0  0  0  0  0  0  0  0
    1.3891   20.5546   19.7702 O   0  0  0  0  0  0  0  0  0  0  0  0
    8.6884   21.5861   20.5429 C   0  0  0  0  0  0  0  0  0  0  0  0
    7.4155   21.0451   20.9534 N   0  0  0  0  0  0  0  0  0  0  0  0
    7.3758   20.0981   21.9108 N   0  0  0  0  0  0  0  0  0  0  0  0
    6.0714   19.8525   22.0711 C   0  0  0  0  0  0  0  0  0  0  0  0
    5.2744   20.6144   21.2000 C   0  0  0  0  0  0  0  0  0  0  0  0
    6.1766   21.3715   20.4841 C   0  0  0  0  0  0  0  0  0  0  0  0
    5.8449   22.3706   19.4399 C   0  0  0  0  0  0  0  0  0  0  0  0
    4.3929   22.1742   18.9673 C   0  0  0  0  0  0  0  0  0  0  0  0
    3.4161   21.9094   20.1279 C   0  0  0  0  0  0  0  0  0  0  0  0
    3.7955   20.6844   21.0109 C   0  0  0  0  0  0  0  0  0  0  0  0
    1.2762   18.2282   19.6161 C   0  0  0  0  0  0  0  0  0  0  0  0
    1.3054   17.0279   20.3312 C   0  0  0  0  0  0  0  0  0  0  0  0
    0.6068   16.0655   19.6132 C   0  0  0  0  0  0  0  0  0  0  0  0
    0.1137   16.4721   18.4403 C   0  0  0  0  0  0  0  0  0  0  0  0
    0.4504   18.0573   18.0830 S   0  0  0  0  0  0  0  0  0  0  0  0
   -0.5039   15.4014   17.8959 N   0  0  0  0  0  0  0  0  0  0  0  0
   -1.1854   15.3028   16.6299 C   0  0  0  0  0  0  0  0  0  0  0  0
   -0.4101   14.2977   18.6975 N   0  0  0  0  0  0  0  0  0  0  0  0
    0.2924   14.7207   19.7820 C   0  0  0  0  0  0  0  0  0  0  0  0
    0.6316   13.8039   20.9075 C   0  0  0  0  0  0  0  0  0  0  0  0
   -0.0241   14.1515   22.0515 F   0  0  0  0  0  0  0  0  0  0  0  0
    1.9602   13.8426   21.2110 F   0  0  0  0  0  0  0  0  0  0  0  0
  5  6  1  0  0  0
  6  7  1  0  0  0
  7  8  2  0  0  0
  8  9  1  0  0  0
  9 10  2  0  0  0
 10 11  1  0  0  0
 11 12  1  0  0  0
 12 13  1  0  0  0
 13 14  1  0  0  0
 14  1  1  0  0  0
  1  2  1  0  0  0
  1  3  1  0  0  0
  3  4  2  0  0  0
  3 15  1  0  0  0
 15 16  2  0  0  0
 16 17  1  0  0  0
 17 18  2  0  0  0
 18 19  1  0  0  0
 18 20  1  0  0  0
 20 21  1  0  0  0
 20 22  1  0  0  0
 22 23  2  0  0  0
 23 24  1  0  0  0
 24 25  1  0  0  0
 24 26  1  0  0  0
 10  6  1  0  0  0
 19 15  1  0  0  0
 14  9  1  0  0  0
 23 17  1  0  0  0
M  END
> <minimizedAffinity>
-3.53033

$$$$
OCNT-2313689


 25 28  0  0  0  0  0  0  0  0999 V2000
    0.3067   15.5651   19.4761 C   0  0  0  0  0  0  0  0  0  0  0  0
    1.2933   16.1941   20.0728 N   0  0  0  0  0  0  0  0  0  0  0  0
    1.6666   15.2911   21.0418 C   0  0  0  0  0  0  0  0  0  0  0  0
    0.9395   14.1639   21.0648 N   0  0  0  0  0  0  0  0  0  0  0  0
    0.0306   14.3459   20.0226 O   0  0  0  0  0  0  0  0  0  0  0  0
   -0.5081   15.9788   18.3099 C   0  0  0  0  0  0  0  0  0  0  0  0
   -2.0564   17.8254   17.4386 C   0  0  0  0  0  0  0  0  0  0  0  0
   -0.8075   17.4987   18.2707 C   0  0  0  0  0  0  0  0  0  0  0  0
   -1.0276   17.9743   19.6050 O   0  0  0  0  0  0  0  0  0  0  0  0
   -1.9120   17.6874   19.8947 H   0  0  0  0  0  0  0  0  0  0  0  0
    0.4513   18.2112   17.7980 C   0  0  0  0  0  0  0  0  0  0  0  0
    0.9078   19.5561   18.3148 C   0  0  0  0  0  0  0  0  0  0  0  0
    0.4165   19.4245   16.8985 C   0  0  0  0  0  0  0  0  0  0  0  0
    2.7810   15.5499   21.9977 C   0  0  0  0  0  0  0  0  0  0  0  0
    4.0029   15.8219   21.3023 O   0  0  0  0  0  0  0  0  0  0  0  0
    4.4582   17.1112   21.3155 C   0  0  0  0  0  0  0  0  0  0  0  0
    5.5198   17.3399   22.1909 C   0  0  0  0  0  0  0  0  0  0  0  0
    6.0860   18.6107   22.3082 C   0  0  0  0  0  0  0  0  0  0  0  0
    5.5952   19.6813   21.5489 C   0  0  0  0  0  0  0  0  0  0  0  0
    6.1506   20.9668   21.6530 C   0  0  0  0  0  0  0  0  0  0  0  0
    5.6500   22.0236   20.8912 C   0  0  0  0  0  0  0  0  0  0  0  0
    4.5892   21.8082   20.0168 C   0  0  0  0  0  0  0  0  0  0  0  0
    4.0271   20.5355   19.9019 C   0  0  0  0  0  0  0  0  0  0  0  0
    4.5181   19.4597   20.6607 C   0  0  0  0  0  0  0  0  0  0  0  0
    3.9603   18.1709   20.5545 C   0  0  0  0  0  0  0  0  0  0  0  0
  7  8  1  0  0  0
  8  9  1  0  0  0
  8  6  1  0  0  0
  6  1  1  0  0  0
  1  2  2  0  0  0
  2  3  1  0  0  0
  3 14  1  0  0  0
 14 15  1  0  0  0
 15 16  1  0  0  0
 16 17  1  0  0  0
 17 18  2  0  0  0
 18 19  1  0  0  0
 19 20  2  0  0  0
 20 21  1  0  0  0
 21 22  2  0  0  0
 22 23  1  0  0  0
 23 24  2  0  0  0
 24 25  1  0  0  0
  3  4  2  0  0  0
  4  5  1  0  0  0
  8 11  1  0  0  0
 11 12  1  0  0  0
 12 13  1  0  0  0
  5  1  1  0  0  0
 13 11  1  0  0  0
 25 16  2  0  0  0
 24 19  1  0  0  0
  9 10  1  0  0  0
M  END
> <minimizedAffinity>
-10.93426

$$$$
OCNT-2313694


 26 29  0  0  0  0  0  0  0  0999 V2000
    2.2738   14.9028   21.7526 C   0  0  0  0  0  0  0  0  0  0  0  0
    2.9663   13.8866   21.7610 O   0  0  0  0  0  0  0  0  0  0  0  0
    2.8048   16.1637   21.7692 N   0  0  0  0  0  0  0  0  0  0  0  0
    2.2241   16.9950   21.6830 H   0  0  0  0  0  0  0  0  0  0  0  0
    0.7614   14.8512   21.7154 C   0  0  0  0  0  0  0  0  0  0  0  0
    0.2953   18.1756   18.3472 C   0  0  0  0  0  0  0  0  0  0  0  0
   -0.2521   17.6000   17.1920 C   0  0  0  0  0  0  0  0  0  0  0  0
   -0.5845   16.2409   17.1288 C   0  0  0  0  0  0  0  0  0  0  0  0
   -0.3380   15.5003   18.2791 C   0  0  0  0  0  0  0  0  0  0  0  0
   -0.5803   14.1740   18.4499 O   0  0  0  0  0  0  0  0  0  0  0  0
   -0.2038   13.7936   19.7286 N   0  0  0  0  0  0  0  0  0  0  0  0
    0.2601   14.9064   20.3183 C   0  0  0  0  0  0  0  0  0  0  0  0
    0.2026   16.0215   19.4402 C   0  0  0  0  0  0  0  0  0  0  0  0
    0.5328   17.3905   19.4851 C   0  0  0  0  0  0  0  0  0  0  0  0
    0.8797   20.2061   19.4419 C   0  0  0  0  0  0  0  0  0  0  0  0
    0.5534   19.5171   18.2401 O   0  0  0  0  0  0  0  0  0  0  0  0
    4.2305   16.4013   21.7559 C   0  0  0  0  0  0  0  0  0  0  0  0
    4.4965   17.8345   21.4127 C   0  0  0  0  0  0  0  0  0  0  0  0
    4.0101   18.3872   20.2853 N   0  0  0  0  0  0  0  0  0  0  0  0
    4.4519   19.6606   20.3300 N   0  0  0  0  0  0  0  0  0  0  0  0
    4.0962   20.5713   19.2691 C   0  0  0  0  0  0  0  0  0  0  0  0
    5.2205   19.9231   21.4267 C   0  0  0  0  0  0  0  0  0  0  0  0
    5.2558   18.7648   22.1628 C   0  0  0  0  0  0  0  0  0  0  0  0
    5.8968   21.2636   21.8018 C   0  0  0  0  0  0  0  0  0  0  0  0
    7.0205   21.7759   20.9398 C   0  0  0  0  0  0  0  0  0  0  0  0
    7.3125   21.2552   22.3161 C   0  0  0  0  0  0  0  0  0  0  0  0
 15 16  1  0  0  0
 16  6  1  0  0  0
  6  7  2  0  0  0
  7  8  1  0  0  0
  8  9  2  0  0  0
  9 10  1  0  0  0
 10 11  1  0  0  0
 11 12  2  0  0  0
 12  5  1  0  0  0
  5  1  1  0  0  0
  1  2  2  0  0  0
  1  3  1  0  0  0
  3 17  1  0  0  0
 17 18  1  0  0  0
 18 19  2  0  0  0
 19 20  1  0  0  0
 20 21  1  0  0  0
 20 22  1  0  0  0
 22 24  1  0  0  0
 24 25  1  0  0  0
 25 26  1  0  0  0
 22 23  2  0  0  0
 12 13  1  0  0  0
 13 14  2  0  0  0
 14  6  1  0  0  0
 13  9  1  0  0  0
 23 18  1  0  0  0
 26 24  1  0  0  0
  3  4  1  0  0  0
M  END
> <minimizedAffinity>
-10.20592

$$$$
OCNT-2313698


 25 27  0  0  0  0  0  0  0  0999 V2000
    3.2345   19.0671   19.2766 C   0  0  0  0  0  0  0  0  0  0  0  0
    3.7507   20.1481   19.0020 O   0  0  0  0  0  0  0  0  0  0  0  0
    3.9107   18.1021   19.9996 N   0  0  0  0  0  0  0  0  0  0  0  0
    3.5417   17.1619   20.0240 H   0  0  0  0  0  0  0  0  0  0  0  0
    5.3066   18.2595   20.3633 C   0  0  0  0  0  0  0  0  0  0  0  0
    5.7864   17.1712   21.3434 C   0  0  0  0  0  0  0  0  0  0  0  0
    4.9542   17.0148   22.6209 C   0  0  0  0  0  0  0  0  0  0  0  0
    4.8950   18.2805   23.4659 C   0  0  0  0  0  0  0  0  0  0  0  0
    4.1372   19.2988   22.8048 O   0  0  0  0  0  0  0  0  0  0  0  0
    4.9621   20.1143   22.0753 C   0  0  0  0  0  0  0  0  0  0  0  0
    5.1471   21.4297   22.5024 C   0  0  0  0  0  0  0  0  0  0  0  0
    4.5648   21.8615   23.6305 F   0  0  0  0  0  0  0  0  0  0  0  0
    5.9432   22.3061   21.7753 C   0  0  0  0  0  0  0  0  0  0  0  0
    6.5474   21.8680   20.5987 C   0  0  0  0  0  0  0  0  0  0  0  0
    6.3469   20.5567   20.1546 C   0  0  0  0  0  0  0  0  0  0  0  0
    5.5486   19.6598   20.8865 C   0  0  0  0  0  0  0  0  0  0  0  0
   -0.7679   16.3666   18.9164 C   0  0  0  0  0  0  0  0  0  0  0  0
    0.0930   17.5063   18.6898 N   0  0  0  0  0  0  0  0  0  0  0  0
    1.3156   17.5200   19.2454 N   0  0  0  0  0  0  0  0  0  0  0  0
    1.8692   18.6827   18.8570 C   0  0  0  0  0  0  0  0  0  0  0  0
    0.9577   19.4003   18.0294 C   0  0  0  0  0  0  0  0  0  0  0  0
   -0.1733   18.6151   17.9381 C   0  0  0  0  0  0  0  0  0  0  0  0
   -1.4505   18.8047   17.2232 C   0  0  0  0  0  0  0  0  0  0  0  0
   -2.4250   18.0320   17.7699 F   0  0  0  0  0  0  0  0  0  0  0  0
   -1.3424   18.4165   15.9253 F   0  0  0  0  0  0  0  0  0  0  0  0
 17 18  1  0  0  0
 18 19  1  0  0  0
 19 20  2  0  0  0
 20  1  1  0  0  0
  1  2  2  0  0  0
  1  3  1  0  0  0
  3  5  1  0  0  0
  5  6  1  0  0  0
  6  7  1  0  0  0
  7  8  1  0  0  0
  8  9  1  0  0  0
  9 10  1  0  0  0
 10 11  2  0  0  0
 11 12  1  0  0  0
 11 13  1  0  0  0
 13 14  2  0  0  0
 14 15  1  0  0  0
 15 16  2  0  0  0
 20 21  1  0  0  0
 21 22  2  0  0  0
 22 23  1  0  0  0
 23 24  1  0  0  0
 23 25  1  0  0  0
 22 18  1  0  0  0
 16  5  1  0  0  0
 16 10  1  0  0  0
  3  4  1  0  0  0
M  END
> <minimizedAffinity>
-5.03427

$$$$
OCNT-2313708


 26 28  0  0  0  0  0  0  0  0999 V2000
    0.3672   18.2502   18.6394 C   0  0  0  0  0  0  0  0  0  0  0  0
   -0.4142   18.9289   17.9813 O   0  0  0  0  0  0  0  0  0  0  0  0
    1.4332   18.7742   19.3316 N   0  0  0  0  0  0  0  0  0  0  0  0
    1.8474   18.2195   20.0704 H   0  0  0  0  0  0  0  0  0  0  0  0
    0.5106   14.7999   20.1668 C   0  0  0  0  0  0  0  0  0  0  0  0
    0.6882   16.1186   19.9868 C   0  0  0  0  0  0  0  0  0  0  0  0
    0.1663   16.7787   18.8044 C   0  0  0  0  0  0  0  0  0  0  0  0
   -0.5428   16.0885   17.8966 C   0  0  0  0  0  0  0  0  0  0  0  0
   -0.7455   14.6347   18.0895 C   0  0  0  0  0  0  0  0  0  0  0  0
   -1.3695   13.9719   17.2695 O   0  0  0  0  0  0  0  0  0  0  0  0
   -0.1955   14.0892   19.2219 N   0  0  0  0  0  0  0  0  0  0  0  0
   -0.3511   13.0957   19.3440 H   0  0  0  0  0  0  0  0  0  0  0  0
    1.0176   14.0496   21.3710 C   0  0  0  0  0  0  0  0  0  0  0  0
    3.4846   14.1567   22.0145 C   0  0  0  0  0  0  0  0  0  0  0  0
    2.1077   14.7906   22.1534 C   0  0  0  0  0  0  0  0  0  0  0  0
    1.6178   20.2121   19.4375 C   0  0  0  0  0  0  0  0  0  0  0  0
    3.0940   20.5977   19.3262 C   0  0  0  0  0  0  0  0  0  0  0  0
    3.9909   19.4277   18.9711 C   0  0  0  0  0  0  0  0  0  0  0  0
    5.3200   19.8958   19.5144 C   0  0  0  0  0  0  0  0  0  0  0  0
    4.9204   20.6131   20.8122 C   0  0  0  0  0  0  0  0  0  0  0  0
    5.8164   21.8169   21.1337 C   0  0  0  0  0  0  0  0  0  0  0  0
    6.9869   21.4487   22.0399 C   0  0  0  0  0  0  0  0  0  0  0  0
    7.3218   20.0728   21.8998 O   0  0  0  0  0  0  0  0  0  0  0  0
    6.3005   19.2112   22.4061 C   0  0  0  0  0  0  0  0  0  0  0  0
    4.8974   19.6688   22.0184 C   0  0  0  0  0  0  0  0  0  0  0  0
    3.5694   21.0862   20.6004 O   0  0  0  0  0  0  0  0  0  0  0  0
 14 15  1  0  0  0
 15 13  1  0  0  0
 13  5  1  0  0  0
  5  6  2  0  0  0
  6  7  1  0  0  0
  7  1  1  0  0  0
  1  2  2  0  0  0
  1  3  1  0  0  0
  3 16  1  0  0  0
 16 17  1  0  0  0
 17 18  1  0  0  0
 18 19  1  0  0  0
 19 20  1  0  0  0
 20 21  1  0  0  0
 21 22  1  0  0  0
 22 23  1  0  0  0
 23 24  1  0  0  0
 24 25  1  0  0  0
 20 26  1  0  0  0
  7  8  2  0  0  0
  8  9  1  0  0  0
  9 10  2  0  0  0
  9 11  1  0  0  0
 11  5  1  0  0  0
 26 17  1  0  0  0
 25 20  1  0  0  0
  3  4  1  0  0  0
 11 12  1  0  0  0
M  END
> <minimizedAffinity>
-8.97221

$$$$
OCNT-2313726


 23 25  0  0  0  0  0  0  0  0999 V2000
    3.4888   17.1982   21.3731 C   0  0  0  0  0  0  0  0  0  0  0  0
    3.8558   16.1021   21.7846 O   0  0  0  0  0  0  0  0  0  0  0  0
    2.2092   17.4472   20.9326 N   0  0  0  0  0  0  0  0  0  0  0  0
    2.0170   18.3865   20.5941 H   0  0  0  0  0  0  0  0  0  0  0  0
    1.1633   16.4517   20.9923 C   0  0  0  0  0  0  0  0  0  0  0  0
    0.4711   16.2424   19.6770 C   0  0  0  0  0  0  0  0  0  0  0  0
    0.0049   17.1976   18.7844 C   0  0  0  0  0  0  0  0  0  0  0  0
   -0.6516   16.7674   17.6293 C   0  0  0  0  0  0  0  0  0  0  0  0
   -0.8490   15.3997   17.3873 C   0  0  0  0  0  0  0  0  0  0  0  0
   -0.3961   14.4439   18.2985 C   0  0  0  0  0  0  0  0  0  0  0  0
    0.2645   14.8788   19.4362 C   0  0  0  0  0  0  0  0  0  0  0  0
    0.7902   14.0402   20.5598 C   0  0  0  0  0  0  0  0  0  0  0  0
    1.7138   15.0258   21.2960 C   0  0  0  0  0  0  0  0  0  0  0  0
    1.7257   14.7474   22.6961 O   0  0  0  0  0  0  0  0  0  0  0  0
    2.1672   15.5185   23.1185 H   0  0  0  0  0  0  0  0  0  0  0  0
    7.1509   21.6108   21.1804 C   0  0  0  0  0  0  0  0  0  0  0  0
    6.1487   20.4943   21.1910 C   0  0  0  0  0  0  0  0  0  0  0  0
    6.4354   19.3069   21.8658 C   0  0  0  0  0  0  0  0  0  0  0  0
    5.6042   18.2446   21.9359 N   0  0  0  0  0  0  0  0  0  0  0  0
    4.4121   18.3758   21.2934 C   0  0  0  0  0  0  0  0  0  0  0  0
    4.0274   19.5114   20.5932 C   0  0  0  0  0  0  0  0  0  0  0  0
    4.9087   20.5968   20.5362 C   0  0  0  0  0  0  0  0  0  0  0  0
    4.5126   21.8364   19.7844 C   0  0  0  0  0  0  0  0  0  0  0  0
 16 17  1  0  0  0
 17 18  1  0  0  0
 18 19  2  0  0  0
 19 20  1  0  0  0
 20  1  1  0  0  0
  1  2  2  0  0  0
  1  3  1  0  0  0
  3  5  1  0  0  0
  5  6  1  0  0  0
  6  7  2  0  0  0
  7  8  1  0  0  0
  8  9  2  0  0  0
  9 10  1  0  0  0
 10 11  2  0  0  0
 11 12  1  0  0  0
 12 13  1  0  0  0
 13 14  1  0  0  0
 20 21  2  0  0  0
 21 22  1  0  0  0
 22 23  1  0  0  0
 22 17  2  0  0  0
 13  5  1  0  0  0
 11  6  1  0  0  0
  3  4  1  0  0  0
 14 15  1  0  0  0
M  END
> <minimizedAffinity>
-11.20581

$$$$
OCNT-2313749


 28 31  0  0  0  0  0  0  0  0999 V2000
    1.8547   16.2884   19.5534 O   0  0  0  0  0  0  0  0  0  0  0  0
    2.0895   16.0315   20.7335 C   0  0  0  0  0  0  0  0  0  0  0  0
    3.1600   16.6106   21.3834 N   0  0  0  0  0  0  0  0  0  0  0  0
    3.4079   16.6846   22.8124 C   0  0  0  0  0  0  0  0  0  0  0  0
    4.2594   17.9384   22.9839 C   0  0  0  0  0  0  0  0  0  0  0  0
    5.1167   17.9638   21.7058 C   0  0  0  0  0  0  0  0  0  0  0  0
    6.1580   16.9884   21.8659 O   0  0  0  0  0  0  0  0  0  0  0  0
    4.0948   17.4599   20.6561 C   0  0  0  0  0  0  0  0  0  0  0  0
    6.9988   17.3848   21.5791 H   0  0  0  0  0  0  0  0  0  0  0  0
    1.1910   15.2001   21.4951 C   0  0  0  0  0  0  0  0  0  0  0  0
    0.2355   14.2741   21.1210 C   0  0  0  0  0  0  0  0  0  0  0  0
   -0.2312   13.8282   19.5432 Cl  0  0  0  0  0  0  0  0  0  0  0  0
   -0.3702   13.7504   22.3022 C   0  0  0  0  0  0  0  0  0  0  0  0
   -1.3635   12.7814   22.5597 C   0  0  0  0  0  0  0  0  0  0  0  0
   -1.7317   12.5209   23.8829 C   0  0  0  0  0  0  0  0  0  0  0  0
   -2.9374   11.3335   24.2054 Cl  0  0  0  0  0  0  0  0  0  0  0  0
   -1.1429   13.2049   24.9432 C   0  0  0  0  0  0  0  0  0  0  0  0
   -0.1648   14.1771   24.7121 C   0  0  0  0  0  0  0  0  0  0  0  0
    0.1985   14.4241   23.3831 C   0  0  0  0  0  0  0  0  0  0  0  0
    1.0978   15.3242   22.8641 N   0  0  0  0  0  0  0  0  0  0  0  0
    1.6352   15.9889   23.4058 H   0  0  0  0  0  0  0  0  0  0  0  0
    5.7661   19.2989   21.3748 C   0  0  0  0  0  0  0  0  0  0  0  0
    6.9950   19.6726   21.9503 C   0  0  0  0  0  0  0  0  0  0  0  0
    7.6037   20.8860   21.6196 C   0  0  0  0  0  0  0  0  0  0  0  0
    6.9980   21.7298   20.6997 C   0  0  0  0  0  0  0  0  0  0  0  0
    7.5834   22.8913   20.3817 F   0  0  0  0  0  0  0  0  0  0  0  0
    5.7984   21.3790   20.0971 C   0  0  0  0  0  0  0  0  0  0  0  0
    5.1887   20.1658   20.4265 C   0  0  0  0  0  0  0  0  0  0  0  0
  1  2  2  0  0  0
  2 10  1  0  0  0
 10 11  2  0  0  0
 11 12  1  0  0  0
 11 13  1  0  0  0
 13 14  2  0  0  0
 14 15  1  0  0  0
 15 16  1  0  0  0
 15 17  2  0  0  0
 17 18  1  0  0  0
 18 19  2  0  0  0
 19 20  1  0  0  0
  2  3  1  0  0  0
  3  4  1  0  0  0
  4  5  1  0  0  0
  5  6  1  0  0  0
  6  7  1  0  0  0
  6 22  1  0  0  0
 22 23  1  0  0  0
 23 24  2  0  0  0
 24 25  1  0  0  0
 25 26  1  0  0  0
 25 27  2  0  0  0
 27 28  1  0  0  0
  6  8  1  0  0  0
 20 10  1  0  0  0
  8  3  1  0  0  0
 19 13  1  0  0  0
 28 22  2  0  0  0
 20 21  1  0  0  0
  7  9  1  0  0  0
M  END
> <minimizedAffinity>
-1.62389

$$$$
OCNT-2313771


 23 25  0  0  0  0  0  0  0  0999 V2000
    3.3948   18.8343   19.9565 C   0  0  0  0  0  0  0  0  0  0  0  0
    2.0312   19.5042   19.7313 C   0  0  0  0  0  0  0  0  0  0  0  0
    1.0725   18.5593   19.0213 C   0  0  0  0  0  0  0  0  0  0  0  0
    0.7838   17.3900   19.8806 N   0  0  0  0  0  0  0  0  0  0  0  0
    1.9203   16.9304   20.7100 C   0  0  0  0  0  0  0  0  0  0  0  0
    3.2669   17.3104   20.1037 C   0  0  0  0  0  0  0  0  0  0  0  0
    0.2315   16.3563   19.0902 C   0  0  0  0  0  0  0  0  0  0  0  0
   -0.2369   16.6625   17.8540 N   0  0  0  0  0  0  0  0  0  0  0  0
   -0.7842   15.6553   17.1371 C   0  0  0  0  0  0  0  0  0  0  0  0
   -0.8738   14.3665   17.6183 C   0  0  0  0  0  0  0  0  0  0  0  0
   -0.4129   14.0269   18.8374 N   0  0  0  0  0  0  0  0  0  0  0  0
    0.1523   15.0372   19.5724 C   0  0  0  0  0  0  0  0  0  0  0  0
    0.7024   14.7075   20.9383 C   0  0  0  0  0  0  0  0  0  0  0  0
   -0.2702   14.3825   21.8424 F   0  0  0  0  0  0  0  0  0  0  0  0
    1.5603   13.6408   20.9407 F   0  0  0  0  0  0  0  0  0  0  0  0
    3.9845   19.3291   21.1696 O   0  0  0  0  0  0  0  0  0  0  0  0
    6.3655   18.6517   22.2879 F   0  0  0  0  0  0  0  0  0  0  0  0
    6.2602   19.7955   21.5964 C   0  0  0  0  0  0  0  0  0  0  0  0
    7.3687   20.6208   21.4646 C   0  0  0  0  0  0  0  0  0  0  0  0
    7.2446   21.8055   20.7456 C   0  0  0  0  0  0  0  0  0  0  0  0
    6.0102   22.1112   20.1891 C   0  0  0  0  0  0  0  0  0  0  0  0
    4.9145   21.3259   20.3021 N   0  0  0  0  0  0  0  0  0  0  0  0
    5.0617   20.1775   21.0050 C   0  0  0  0  0  0  0  0  0  0  0  0
 17 18  1  0  0  0
 18 19  1  0  0  0
 19 20  2  0  0  0
 20 21  1  0  0  0
 21 22  2  0  0  0
 22 23  1  0  0  0
 23 16  1  0  0  0
 16  1  1  0  0  0
  1  2  1  0  0  0
  2  3  1  0  0  0
  3  4  1  0  0  0
  4  7  1  0  0  0
  7  8  1  0  0  0
  8  9  2  0  0  0
  9 10  1  0  0  0
 10 11  2  0  0  0
 11 12  1  0  0  0
 12 13  1  0  0  0
 13 14  1  0  0  0
 13 15  1  0  0  0
  4  5  1  0  0  0
  5  6  1  0  0  0
 23 18  2  0  0  0
  6  1  1  0  0  0
 12  7  2  0  0  0
M  END
> <minimizedAffinity>
-8.64095

$$$$
OCNT-2313778


 25 29  0  0  0  0  0  0  0  0999 V2000
    3.7824   13.9958   22.0332 O   0  0  0  0  0  0  0  0  0  0  0  0
    3.2725   15.0798   21.7620 C   0  0  0  0  0  0  0  0  0  0  0  0
    1.9699   15.2262   21.3053 N   0  0  0  0  0  0  0  0  0  0  0  0
    1.5251   16.3072   20.4324 C   0  0  0  0  0  0  0  0  0  0  0  0
    0.5716   15.6345   19.4417 C   0  0  0  0  0  0  0  0  0  0  0  0
   -0.0742   14.5568   20.3088 C   0  0  0  0  0  0  0  0  0  0  0  0
    1.0883   14.0670   21.1848 C   0  0  0  0  0  0  0  0  0  0  0  0
    4.1041   16.2987   21.9272 C   0  0  0  0  0  0  0  0  0  0  0  0
    5.2990   16.3993   21.2081 C   0  0  0  0  0  0  0  0  0  0  0  0
    6.1142   17.5237   21.3576 C   0  0  0  0  0  0  0  0  0  0  0  0
    5.7509   18.5523   22.2405 C   0  0  0  0  0  0  0  0  0  0  0  0
    4.5567   18.4335   22.9710 C   0  0  0  0  0  0  0  0  0  0  0  0
    3.7428   17.3080   22.8245 C   0  0  0  0  0  0  0  0  0  0  0  0
    6.6302   19.7691   22.4017 C   0  0  0  0  0  0  0  0  0  0  0  0
    6.2791   20.8196   21.4641 N   0  0  0  0  0  0  0  0  0  0  0  0
    7.1214   21.6395   20.7787 C   0  0  0  0  0  0  0  0  0  0  0  0
    6.4238   22.4242   19.9900 N   0  0  0  0  0  0  0  0  0  0  0  0
    5.1363   22.0404   20.2360 C   0  0  0  0  0  0  0  0  0  0  0  0
    4.9944   21.0551   21.1270 N   0  0  0  0  0  0  0  0  0  0  0  0
   -0.3335   16.6147   18.7554 C   0  0  0  0  0  0  0  0  0  0  0  0
   -0.4956   16.6863   17.2574 C   0  0  0  0  0  0  0  0  0  0  0  0
    0.2036   17.7990   17.9922 C   0  0  0  0  0  0  0  0  0  0  0  0
    0.5924   13.6305   22.5351 C   0  0  0  0  0  0  0  0  0  0  0  0
   -0.6072   14.2869   23.1718 C   0  0  0  0  0  0  0  0  0  0  0  0
    0.7642   14.5337   23.7324 C   0  0  0  0  0  0  0  0  0  0  0  0
  1  2  2  0  0  0
  2  8  1  0  0  0
  8  9  1  0  0  0
  9 10  2  0  0  0
 10 11  1  0  0  0
 11 14  1  0  0  0
 14 15  1  0  0  0
 15 16  1  0  0  0
 16 17  2  0  0  0
 17 18  1  0  0  0
 18 19  2  0  0  0
 11 12  2  0  0  0
 12 13  1  0  0  0
  2  3  1  0  0  0
  3  4  1  0  0  0
  4  5  1  0  0  0
  5 20  1  0  0  0
 20 21  1  0  0  0
 21 22  1  0  0  0
  5  6  1  0  0  0
  6  7  1  0  0  0
  7 23  1  0  0  0
 23 24  1  0  0  0
 24 25  1  0  0  0
 13  8  2  0  0  0
  7  3  1  0  0  0
 25 23  1  0  0  0
 19 15  1  0  0  0
 22 20  1  0  0  0
M  END
> <minimizedAffinity>
-7.97549

$$$$
OCNT-2313785


 30 34  0  0  0  0  0  0  0  0999 V2000
    0.6574   15.3222   21.3545 C   0  0  0  0  0  0  0  0  0  0  0  0
   -0.0136   14.1384   22.0867 C   0  0  0  0  0  0  0  0  0  0  0  0
    0.9877   12.9952   21.8475 C   0  0  0  0  0  0  0  0  0  0  0  0
    2.3382   13.6865   21.9097 C   0  0  0  0  0  0  0  0  0  0  0  0
    2.0936   15.0157   21.3869 N   0  0  0  0  0  0  0  0  0  0  0  0
    3.1342   15.9176   21.2756 C   0  0  0  0  0  0  0  0  0  0  0  0
    4.2637   15.6300   21.6637 O   0  0  0  0  0  0  0  0  0  0  0  0
    2.7778   17.1184   20.7271 N   0  0  0  0  0  0  0  0  0  0  0  0
    2.0131   17.1199   20.0723 H   0  0  0  0  0  0  0  0  0  0  0  0
    3.5489   18.2756   20.6144 C   0  0  0  0  0  0  0  0  0  0  0  0
    4.6825   18.5307   21.3740 C   0  0  0  0  0  0  0  0  0  0  0  0
    5.3723   19.7386   21.1933 C   0  0  0  0  0  0  0  0  0  0  0  0
    6.5298   20.0502   21.9261 C   0  0  0  0  0  0  0  0  0  0  0  0
    7.1971   21.2605   21.7248 C   0  0  0  0  0  0  0  0  0  0  0  0
    6.7179   22.1750   20.7900 C   0  0  0  0  0  0  0  0  0  0  0  0
    5.5696   21.8814   20.0541 C   0  0  0  0  0  0  0  0  0  0  0  0
    4.8913   20.6648   20.2508 C   0  0  0  0  0  0  0  0  0  0  0  0
    3.7383   20.3150   19.5494 C   0  0  0  0  0  0  0  0  0  0  0  0
    3.0595   19.1551   19.7146 N   0  0  0  0  0  0  0  0  0  0  0  0
    0.0174   17.9437   19.8593 C   0  0  0  0  0  0  0  0  0  0  0  0
   -0.1565   16.6052   19.3480 N   0  0  0  0  0  0  0  0  0  0  0  0
   -0.6031   16.3120   18.0851 C   0  0  0  0  0  0  0  0  0  0  0  0
   -0.9556   17.0851   17.2118 O   0  0  0  0  0  0  0  0  0  0  0  0
   -0.5648   14.9286   17.9970 N   0  0  0  0  0  0  0  0  0  0  0  0
   -0.0997   14.3841   19.1595 N   0  0  0  0  0  0  0  0  0  0  0  0
    0.1293   15.4170   19.9249 C   0  0  0  0  0  0  0  0  0  0  0  0
   -0.8153   14.3738   17.1894 H   0  0  0  0  0  0  0  0  0  0  0  0
   -0.2713   14.3119   23.5688 C   0  0  0  0  0  0  0  0  0  0  0  0
   -1.5821   14.7811   24.1506 C   0  0  0  0  0  0  0  0  0  0  0  0
   -1.1382   13.3568   24.3515 C   0  0  0  0  0  0  0  0  0  0  0  0
 20 21  1  0  0  0
 21 22  1  0  0  0
 22 23  2  0  0  0
 22 24  1  0  0  0
 24 25  1  0  0  0
 25 26  2  0  0  0
 26  1  1  0  0  0
  1  2  1  0  0  0
  2 28  1  0  0  0
 28 29  1  0  0  0
 29 30  1  0  0  0
  2  3  1  0  0  0
  3  4  1  0  0  0
  4  5  1  0  0  0
  5  6  1  0  0  0
  6  7  2  0  0  0
  6  8  1  0  0  0
  8 10  1  0  0  0
 10 11  1  0  0  0
 11 12  2  0  0  0
 12 13  1  0  0  0
 13 14  2  0  0  0
 14 15  1  0  0  0
 15 16  2  0  0  0
 16 17  1  0  0  0
 17 18  2  0  0  0
 18 19  1  0  0  0
 26 21  1  0  0  0
  5  1  1  0  0  0
 19 10  2  0  0  0
 30 28  1  0  0  0
 17 12  1  0  0  0
 24 27  1  0  0  0
  8  9  1  0  0  0
M  END
> <minimizedAffinity>
-9.85226

$$$$
OCNT-2313789


 25 28  0  0  0  0  0  0  0  0999 V2000
    2.6751   18.0574   19.6904 O   0  0  0  0  0  0  0  0  0  0  0  0
    2.8827   17.1287   20.4663 C   0  0  0  0  0  0  0  0  0  0  0  0
    1.9641   16.0139   20.6293 C   0  0  0  0  0  0  0  0  0  0  0  0
    2.3394   14.9974   21.4832 C   0  0  0  0  0  0  0  0  0  0  0  0
    3.4844   14.9243   22.2064 N   0  0  0  0  0  0  0  0  0  0  0  0
    4.2680   15.9433   22.0651 C   0  0  0  0  0  0  0  0  0  0  0  0
    4.0257   17.0473   21.2670 N   0  0  0  0  0  0  0  0  0  0  0  0
    1.1714   13.7577   21.5570 S   0  0  0  0  0  0  0  0  0  0  0  0
    0.1518   14.5699   20.4510 C   0  0  0  0  0  0  0  0  0  0  0  0
    0.6863   15.7708   20.0218 C   0  0  0  0  0  0  0  0  0  0  0  0
   -0.0506   16.6102   19.0880 C   0  0  0  0  0  0  0  0  0  0  0  0
   -0.5963   16.0591   17.9207 C   0  0  0  0  0  0  0  0  0  0  0  0
   -1.3099   16.8649   17.0295 C   0  0  0  0  0  0  0  0  0  0  0  0
   -1.4786   18.2209   17.3049 C   0  0  0  0  0  0  0  0  0  0  0  0
   -2.3574   19.2123   16.2070 Cl  0  0  0  0  0  0  0  0  0  0  0  0
   -0.9409   18.7786   18.4631 C   0  0  0  0  0  0  0  0  0  0  0  0
   -0.2276   17.9735   19.3553 C   0  0  0  0  0  0  0  0  0  0  0  0
    5.0218   18.1037   21.1747 C   0  0  0  0  0  0  0  0  0  0  0  0
    4.9964   19.1113   22.3324 C   0  0  0  0  0  0  0  0  0  0  0  0
    5.3804   20.5442   21.9484 C   0  0  0  0  0  0  0  0  0  0  0  0
    6.8912   20.7021   21.7664 C   0  0  0  0  0  0  0  0  0  0  0  0
    7.0562   21.7680   20.6909 C   0  0  0  0  0  0  0  0  0  0  0  0
    5.7044   22.1596   20.2791 N   0  0  0  0  0  0  0  0  0  0  0  0
    4.8471   21.0154   20.6021 C   0  0  0  0  0  0  0  0  0  0  0  0
    5.4120   22.9583   20.8436 H   0  0  0  0  0  0  0  0  0  0  0  0
  1  2  2  0  0  0
  2  3  1  0  0  0
  3  4  2  0  0  0
  4  5  1  0  0  0
  5  6  2  0  0  0
  6  7  1  0  0  0
  7 18  1  0  0  0
 18 19  1  0  0  0
 19 20  1  0  0  0
 20 21  1  0  0  0
 21 22  1  0  0  0
 22 23  1  0  0  0
 23 24  1  0  0  0
  4  8  1  0  0  0
  8  9  1  0  0  0
  9 10  2  0  0  0
 10 11  1  0  0  0
 11 12  1  0  0  0
 12 13  2  0  0  0
 13 14  1  0  0  0
 14 15  1  0  0  0
 14 16  2  0  0  0
 16 17  1  0  0  0
  7  2  1  0  0  0
 24 20  1  0  0  0
 17 11  2  0  0  0
 10  3  1  0  0  0
 23 25  1  0  0  0
M  END
> <minimizedAffinity>
-9.55042

$$$$
OCNT-2313799


 26 29  0  0  0  0  0  0  0  0999 V2000
    3.4129   20.5240   18.7506 O   0  0  0  0  0  0  0  0  0  0  0  0
    3.1460   19.7938   19.6950 C   0  0  0  0  0  0  0  0  0  0  0  0
    1.8776   19.3446   20.0062 N   0  0  0  0  0  0  0  0  0  0  0  0
    1.7250   18.9344   20.9188 H   0  0  0  0  0  0  0  0  0  0  0  0
    4.2089   19.3652   20.6253 C   0  0  0  0  0  0  0  0  0  0  0  0
    4.1438   18.1039   21.2330 C   0  0  0  0  0  0  0  0  0  0  0  0
    5.1547   17.6721   22.0929 C   0  0  0  0  0  0  0  0  0  0  0  0
    6.2543   18.4938   22.3780 C   0  0  0  0  0  0  0  0  0  0  0  0
    6.3163   19.7743   21.7994 C   0  0  0  0  0  0  0  0  0  0  0  0
    5.2970   20.1865   20.9473 C   0  0  0  0  0  0  0  0  0  0  0  0
    5.6118   21.4757   20.6070 N   0  0  0  0  0  0  0  0  0  0  0  0
    6.7880   21.9012   21.0988 N   0  0  0  0  0  0  0  0  0  0  0  0
    7.2053   20.8712   21.8403 C   0  0  0  0  0  0  0  0  0  0  0  0
    5.0649   22.1152   20.0395 H   0  0  0  0  0  0  0  0  0  0  0  0
    0.7199   19.7196   19.2165 C   0  0  0  0  0  0  0  0  0  0  0  0
    0.1578   18.5225   18.4106 C   0  0  0  0  0  0  0  0  0  0  0  0
   -0.4376   18.8566   16.9994 C   0  0  0  0  0  0  0  0  0  0  0  0
   -1.6699   18.0011   17.3418 C   0  0  0  0  0  0  0  0  0  0  0  0
   -1.2868   18.0840   18.8295 C   0  0  0  0  0  0  0  0  0  0  0  0
    1.2507   17.4151   18.4476 C   0  0  0  0  0  0  0  0  0  0  0  0
    1.0131   16.2668   19.3993 C   0  0  0  0  0  0  0  0  0  0  0  0
    0.0681   15.2750   19.1000 C   0  0  0  0  0  0  0  0  0  0  0  0
   -0.1467   14.2090   19.9754 C   0  0  0  0  0  0  0  0  0  0  0  0
    0.5869   14.1164   21.1558 C   0  0  0  0  0  0  0  0  0  0  0  0
    1.5396   15.0863   21.4586 C   0  0  0  0  0  0  0  0  0  0  0  0
    1.7550   16.1528   20.5837 C   0  0  0  0  0  0  0  0  0  0  0  0
  1  2  2  0  0  0
  2  3  1  0  0  0
  3 15  1  0  0  0
 15 16  1  0  0  0
 16 20  1  0  0  0
 20 21  1  0  0  0
 21 22  2  0  0  0
 22 23  1  0  0  0
 23 24  2  0  0  0
 24 25  1  0  0  0
 25 26  2  0  0  0
 16 17  1  0  0  0
 17 18  1  0  0  0
 18 19  1  0  0  0
  2  5  1  0  0  0
  5  6  1  0  0  0
  6  7  2  0  0  0
  7  8  1  0  0  0
  8  9  2  0  0  0
  9 10  1  0  0  0
 10 11  1  0  0  0
 11 12  1  0  0  0
 12 13  2  0  0  0
 19 16  1  0  0  0
 10  5  2  0  0  0
 26 21  1  0  0  0
 13  9  1  0  0  0
  3  4  1  0  0  0
 11 14  1  0  0  0
M  END
> <minimizedAffinity>
-10.65697

$$$$
OCNT-2313808


 25 28  0  0  0  0  0  0  0  0999 V2000
    1.2249   21.7719   19.8946 O   0  0  0  0  0  0  0  0  0  0  0  0
    1.8419   20.7847   19.5123 C   0  0  0  0  0  0  0  0  0  0  0  0
    3.2119   20.6668   19.5346 N   0  0  0  0  0  0  0  0  0  0  0  0
    3.5912   19.8060   19.1503 H   0  0  0  0  0  0  0  0  0  0  0  0
    1.1848   19.5943   18.9653 C   0  0  0  0  0  0  0  0  0  0  0  0
    0.5032   19.5694   17.7630 C   0  0  0  0  0  0  0  0  0  0  0  0
   -0.1191   18.0027   17.4689 S   0  0  0  0  0  0  0  0  0  0  0  0
    0.5567   17.4616   18.9511 C   0  0  0  0  0  0  0  0  0  0  0  0
    1.2121   18.3700   19.6437 N   0  0  0  0  0  0  0  0  0  0  0  0
    0.4162   15.9950   19.4609 C   0  0  0  0  0  0  0  0  0  0  0  0
   -0.3273   15.0252   18.8306 C   0  0  0  0  0  0  0  0  0  0  0  0
   -0.2526   13.8540   19.5167 O   0  0  0  0  0  0  0  0  0  0  0  0
    0.5460   14.0796   20.5930 C   0  0  0  0  0  0  0  0  0  0  0  0
    0.9846   15.3845   20.6049 C   0  0  0  0  0  0  0  0  0  0  0  0
    4.0982   21.7255   19.9671 C   0  0  0  0  0  0  0  0  0  0  0  0
    5.4790   21.1053   20.1742 C   0  0  0  0  0  0  0  0  0  0  0  0
    6.5975   22.0876   20.6187 C   0  0  0  0  0  0  0  0  0  0  0  0
    7.0258   20.9652   21.5786 C   0  0  0  0  0  0  0  0  0  0  0  0
    5.6382   20.4535   21.5052 N   0  0  0  0  0  0  0  0  0  0  0  0
    5.5629   18.9816   21.5307 C   0  0  0  0  0  0  0  0  0  0  0  0
    5.3861   18.4674   22.9743 C   0  0  0  0  0  0  0  0  0  0  0  0
    4.0012   17.8770   23.1817 C   0  0  0  0  0  0  0  0  0  0  0  0
    3.7357   16.7725   22.3173 O   0  0  0  0  0  0  0  0  0  0  0  0
    4.3755   16.8284   21.0430 C   0  0  0  0  0  0  0  0  0  0  0  0
    4.6036   18.2552   20.5638 C   0  0  0  0  0  0  0  0  0  0  0  0
  1  2  2  0  0  0
  2  3  1  0  0  0
  3 15  1  0  0  0
 15 16  1  0  0  0
 16 17  1  0  0  0
 17 18  1  0  0  0
 18 19  1  0  0  0
 19 20  1  0  0  0
 20 21  1  0  0  0
 21 22  1  0  0  0
 22 23  1  0  0  0
 23 24  1  0  0  0
 24 25  1  0  0  0
  2  5  1  0  0  0
  5  6  2  0  0  0
  6  7  1  0  0  0
  7  8  1  0  0  0
  8 10  1  0  0  0
 10 11  2  0  0  0
 11 12  1  0  0  0
 12 13  1  0  0  0
 13 14  2  0  0  0
  8  9  2  0  0  0
 19 16  1  0  0  0
 25 20  1  0  0  0
  9  5  1  0  0  0
 14 10  1  0  0  0
  3  4  1  0  0  0
M  END
> <minimizedAffinity>
-7.59518

$$$$
OCNT-2313825


 28 32  0  0  0  0  0  0  0  0999 V2000
    1.9686   18.8987   20.0068 C   0  0  0  0  0  0  0  0  0  0  0  0
    0.7737   19.0219   19.7467 O   0  0  0  0  0  0  0  0  0  0  0  0
    2.9156   19.9021   19.7951 N   0  0  0  0  0  0  0  0  0  0  0  0
    2.4433   21.1002   19.1099 C   0  0  0  0  0  0  0  0  0  0  0  0
    3.2609   22.3309   19.4665 C   0  0  0  0  0  0  0  0  0  0  0  0
    4.7505   22.1018   19.2318 C   0  0  0  0  0  0  0  0  0  0  0  0
    5.3103   20.8243   19.9185 C   0  0  0  0  0  0  0  0  0  0  0  0
    6.6545   20.4371   19.2288 C   0  0  0  0  0  0  0  0  0  0  0  0
    7.7695   21.4259   19.5316 C   0  0  0  0  0  0  0  0  0  0  0  0
    8.0824   21.4112   21.0179 C   0  0  0  0  0  0  0  0  0  0  0  0
    6.8574   21.4042   21.8992 C   0  0  0  0  0  0  0  0  0  0  0  0
    7.0568   21.6565   23.2700 C   0  0  0  0  0  0  0  0  0  0  0  0
    5.9949   21.6245   24.1676 C   0  0  0  0  0  0  0  0  0  0  0  0
    4.7198   21.3344   23.7065 C   0  0  0  0  0  0  0  0  0  0  0  0
    4.5096   21.0750   22.3502 C   0  0  0  0  0  0  0  0  0  0  0  0
    5.5642   21.0961   21.4169 C   0  0  0  0  0  0  0  0  0  0  0  0
    4.3531   19.6160   19.6737 C   0  0  0  0  0  0  0  0  0  0  0  0
    4.0653   14.2819   22.3084 O   0  0  0  0  0  0  0  0  0  0  0  0
    3.5643   15.2792   21.8026 C   0  0  0  0  0  0  0  0  0  0  0  0
    4.1682   16.5054   21.8708 O   0  0  0  0  0  0  0  0  0  0  0  0
    3.5934   17.6280   21.2615 C   0  0  0  0  0  0  0  0  0  0  0  0
    2.4492   17.6112   20.5712 C   0  0  0  0  0  0  0  0  0  0  0  0
    1.7147   16.3513   20.4881 C   0  0  0  0  0  0  0  0  0  0  0  0
    0.4827   16.2441   19.8263 C   0  0  0  0  0  0  0  0  0  0  0  0
   -0.1820   15.0169   19.7563 C   0  0  0  0  0  0  0  0  0  0  0  0
    0.3748   13.8840   20.3450 C   0  0  0  0  0  0  0  0  0  0  0  0
    1.5968   13.9775   21.0092 C   0  0  0  0  0  0  0  0  0  0  0  0
    2.2655   15.2087   21.0827 C   0  0  0  0  0  0  0  0  0  0  0  0
 18 19  2  0  0  0
 19 20  1  0  0  0
 20 21  1  0  0  0
 21 22  2  0  0  0
 22  1  1  0  0  0
  1  2  2  0  0  0
  1  3  1  0  0  0
  3  4  1  0  0  0
  4  5  1  0  0  0
  5  6  1  0  0  0
  6  7  1  0  0  0
  7  8  1  0  0  0
  8  9  1  0  0  0
  9 10  1  0  0  0
 10 11  1  0  0  0
 11 12  2  0  0  0
 12 13  1  0  0  0
 13 14  2  0  0  0
 14 15  1  0  0  0
 15 16  2  0  0  0
  7 17  1  0  0  0
 22 23  1  0  0  0
 23 24  2  0  0  0
 24 25  1  0  0  0
 25 26  2  0  0  0
 26 27  1  0  0  0
 27 28  2  0  0  0
 28 19  1  0  0  0
 17  3  1  0  0  0
 28 23  1  0  0  0
 16  7  1  0  0  0
 16 11  1  0  0  0
M  END
> <minimizedAffinity>
3.96185

$$$$
OCNT-2313829


 27 30  0  0  0  0  0  0  0  0999 V2000
    2.5512   15.6836   21.5290 C   0  0  0  0  0  0  0  0  0  0  0  0
    3.6926   15.5959   21.9824 O   0  0  0  0  0  0  0  0  0  0  0  0
    2.2393   16.6584   20.5714 N   0  0  0  0  0  0  0  0  0  0  0  0
    3.3414   17.4337   20.0047 C   0  0  0  0  0  0  0  0  0  0  0  0
    2.9449   18.1016   18.6926 C   0  0  0  0  0  0  0  0  0  0  0  0
    1.7374   19.0499   18.8578 C   0  0  0  0  0  0  0  0  0  0  0  0
    0.8468   18.6275   20.0427 C   0  0  0  0  0  0  0  0  0  0  0  0
    0.8809   17.1206   20.2799 C   0  0  0  0  0  0  0  0  0  0  0  0
   -0.1759   13.5564   23.2242 C   0  0  0  0  0  0  0  0  0  0  0  0
   -0.3234   13.3429   21.9327 N   0  0  0  0  0  0  0  0  0  0  0  0
    0.6027   14.0892   21.2287 C   0  0  0  0  0  0  0  0  0  0  0  0
    1.5014   14.8026   21.9924 C   0  0  0  0  0  0  0  0  0  0  0  0
    1.0984   14.6347   23.6493 S   0  0  0  0  0  0  0  0  0  0  0  0
   -1.8989   13.9760   24.9897 C   0  0  0  0  0  0  0  0  0  0  0  0
   -1.0256   12.9271   24.2982 C   0  0  0  0  0  0  0  0  0  0  0  0
   -1.8912   11.8155   23.7058 C   0  0  0  0  0  0  0  0  0  0  0  0
    2.1556   20.5229   19.0311 C   0  0  0  0  0  0  0  0  0  0  0  0
    3.4650   20.6657   19.7319 C   0  0  0  0  0  0  0  0  0  0  0  0
    4.3403   21.6361   19.5711 N   0  0  0  0  0  0  0  0  0  0  0  0
    5.3798   21.3433   20.4193 C   0  0  0  0  0  0  0  0  0  0  0  0
    6.5721   22.0426   20.6541 C   0  0  0  0  0  0  0  0  0  0  0  0
    7.4834   21.5231   21.5829 C   0  0  0  0  0  0  0  0  0  0  0  0
    7.2124   20.3328   22.2630 C   0  0  0  0  0  0  0  0  0  0  0  0
    6.0267   19.6217   22.0420 C   0  0  0  0  0  0  0  0  0  0  0  0
    5.1370   20.1631   21.1118 C   0  0  0  0  0  0  0  0  0  0  0  0
    3.9127   19.7506   20.6537 N   0  0  0  0  0  0  0  0  0  0  0  0
    3.4250   18.9167   20.9446 H   0  0  0  0  0  0  0  0  0  0  0  0
 14 15  1  0  0  0
 15 16  1  0  0  0
 15  9  1  0  0  0
  9 10  2  0  0  0
 10 11  1  0  0  0
 11 12  2  0  0  0
 12  1  1  0  0  0
  1  2  2  0  0  0
  1  3  1  0  0  0
  3  4  1  0  0  0
  4  5  1  0  0  0
  5  6  1  0  0  0
  6 17  1  0  0  0
 17 18  1  0  0  0
 18 19  2  0  0  0
 19 20  1  0  0  0
 20 21  2  0  0  0
 21 22  1  0  0  0
 22 23  2  0  0  0
 23 24  1  0  0  0
 24 25  2  0  0  0
 25 26  1  0  0  0
  6  7  1  0  0  0
  7  8  1  0  0  0
 12 13  1  0  0  0
 13  9  1  0  0  0
  8  3  1  0  0  0
 26 18  1  0  0  0
 25 20  1  0  0  0
 26 27  1  0  0  0
M  END
> <minimizedAffinity>
-4.58210

$$$$
OCNT-2313831


 24 27  0  0  0  0  0  0  0  0999 V2000
    2.6484   17.8804   20.2364 N   0  0  0  0  0  0  0  0  0  0  0  0
    3.4691   17.3347   21.2122 C   0  0  0  0  0  0  0  0  0  0  0  0
    3.2823   16.2618   21.7738 O   0  0  0  0  0  0  0  0  0  0  0  0
    2.8540   18.8271   19.9565 H   0  0  0  0  0  0  0  0  0  0  0  0
   -1.9185   18.3316   16.5139 O   0  0  0  0  0  0  0  0  0  0  0  0
   -0.9305   18.4703   17.2047 C   0  0  0  0  0  0  0  0  0  0  0  0
   -0.1232   19.5817   17.2837 N   0  0  0  0  0  0  0  0  0  0  0  0
    0.9685   19.4181   18.2080 C   0  0  0  0  0  0  0  0  0  0  0  0
    0.7706   18.0305   18.7264 C   0  0  0  0  0  0  0  0  0  0  0  0
   -0.3650   17.4763   18.1225 C   0  0  0  0  0  0  0  0  0  0  0  0
   -0.8200   16.2024   18.3917 C   0  0  0  0  0  0  0  0  0  0  0  0
   -0.0916   15.4559   19.3124 C   0  0  0  0  0  0  0  0  0  0  0  0
    1.0559   15.9954   19.9322 C   0  0  0  0  0  0  0  0  0  0  0  0
    1.5040   17.2954   19.6506 C   0  0  0  0  0  0  0  0  0  0  0  0
   -0.3215   20.4093   16.7366 H   0  0  0  0  0  0  0  0  0  0  0  0
    4.6082   18.1785   21.5633 C   0  0  0  0  0  0  0  0  0  0  0  0
    4.8427   19.4731   21.1305 C   0  0  0  0  0  0  0  0  0  0  0  0
    4.1641   20.3904   20.2711 C   0  0  0  0  0  0  0  0  0  0  0  0
    4.6884   21.6103   20.0476 C   0  0  0  0  0  0  0  0  0  0  0  0
    5.9369   22.0259   20.6609 C   0  0  0  0  0  0  0  0  0  0  0  0
    6.5755   21.1664   21.4707 C   0  0  0  0  0  0  0  0  0  0  0  0
    6.0415   19.8990   21.7106 N   0  0  0  0  0  0  0  0  0  0  0  0
    6.5708   18.9278   22.4973 N   0  0  0  0  0  0  0  0  0  0  0  0
    5.7020   17.9216   22.4191 C   0  0  0  0  0  0  0  0  0  0  0  0
  5  6  2  0  0  0
  6  7  1  0  0  0
  7  8  1  0  0  0
  8  9  1  0  0  0
  9 10  2  0  0  0
 10 11  1  0  0  0
 11 12  2  0  0  0
 12 13  1  0  0  0
 13 14  2  0  0  0
 14  1  1  0  0  0
  1  2  1  0  0  0
  2  3  2  0  0  0
  2 16  1  0  0  0
 16 17  2  0  0  0
 17 18  1  0  0  0
 18 19  2  0  0  0
 19 20  1  0  0  0
 20 21  2  0  0  0
 21 22  1  0  0  0
 22 23  1  0  0  0
 23 24  2  0  0  0
 10  6  1  0  0  0
 24 16  1  0  0  0
 14  9  1  0  0  0
 22 17  1  0  0  0
  7 15  1  0  0  0
  1  4  1  0  0  0
M  END
> <minimizedAffinity>
-12.19661

$$$$
OCNT-2313833


 26 28  0  0  0  0  0  0  0  0999 V2000
    2.5187   16.7290   21.2732 N   0  0  0  0  0  0  0  0  0  0  0  0
    3.8110   16.4139   21.6465 C   0  0  0  0  0  0  0  0  0  0  0  0
    4.3529   15.3299   21.4725 O   0  0  0  0  0  0  0  0  0  0  0  0
    2.1777   17.6720   21.4569 H   0  0  0  0  0  0  0  0  0  0  0  0
   -0.0275   15.7554   18.7759 N   0  0  0  0  0  0  0  0  0  0  0  0
   -0.3773   14.4947   19.2250 C   0  0  0  0  0  0  0  0  0  0  0  0
    0.1998   13.9605   20.3065 C   0  0  0  0  0  0  0  0  0  0  0  0
    1.2048   14.6943   21.0349 C   0  0  0  0  0  0  0  0  0  0  0  0
    1.5772   15.9264   20.6586 C   0  0  0  0  0  0  0  0  0  0  0  0
    0.9162   16.5390   19.4398 C   0  0  0  0  0  0  0  0  0  0  0  0
    1.2405   17.6803   19.1037 O   0  0  0  0  0  0  0  0  0  0  0  0
   -1.5318   17.5396   17.9651 C   0  0  0  0  0  0  0  0  0  0  0  0
   -0.7067   16.3123   17.6089 C   0  0  0  0  0  0  0  0  0  0  0  0
    4.5065   17.6001   22.3021 C   0  0  0  0  0  0  0  0  0  0  0  0
    4.2937   18.9683   21.6283 C   0  0  0  0  0  0  0  0  0  0  0  0
    3.5547   18.8210   20.2939 C   0  0  0  0  0  0  0  0  0  0  0  0
    3.3056   20.1596   19.6433 C   0  0  0  0  0  0  0  0  0  0  0  0
    2.3006   20.3900   18.9743 O   0  0  0  0  0  0  0  0  0  0  0  0
    4.3074   21.0828   19.7527 N   0  0  0  0  0  0  0  0  0  0  0  0
    5.4410   20.9242   20.5559 C   0  0  0  0  0  0  0  0  0  0  0  0
    6.4776   21.8530   20.4455 C   0  0  0  0  0  0  0  0  0  0  0  0
    7.6105   21.7252   21.2459 C   0  0  0  0  0  0  0  0  0  0  0  0
    7.6957   20.6816   22.1640 C   0  0  0  0  0  0  0  0  0  0  0  0
    6.6481   19.7647   22.2884 C   0  0  0  0  0  0  0  0  0  0  0  0
    5.5086   19.8669   21.4778 C   0  0  0  0  0  0  0  0  0  0  0  0
    4.1945   21.9193   19.1954 H   0  0  0  0  0  0  0  0  0  0  0  0
 12 13  1  0  0  0
 13  5  1  0  0  0
  5  6  1  0  0  0
  6  7  2  0  0  0
  7  8  1  0  0  0
  8  9  2  0  0  0
  9  1  1  0  0  0
  1  2  1  0  0  0
  2  3  2  0  0  0
  2 14  1  0  0  0
 14 15  1  0  0  0
 15 16  1  0  0  0
 16 17  1  0  0  0
 17 18  2  0  0  0
 17 19  1  0  0  0
 19 20  1  0  0  0
 20 21  2  0  0  0
 21 22  1  0  0  0
 22 23  2  0  0  0
 23 24  1  0  0  0
 24 25  2  0  0  0
  9 10  1  0  0  0
 10 11  2  0  0  0
 10  5  1  0  0  0
 25 15  1  0  0  0
 25 20  1  0  0  0
  1  4  1  0  0  0
 19 26  1  0  0  0
M  END
> <minimizedAffinity>
-10.48728

$$$$
OCNT-2313845


 26 28  0  0  0  0  0  0  0  0999 V2000
    2.2732   13.7633   21.6886 C   0  0  0  0  0  0  0  0  0  0  0  0
    3.3765   14.8075   21.7505 C   0  0  0  0  0  0  0  0  0  0  0  0
    4.5246   14.4966   22.0584 O   0  0  0  0  0  0  0  0  0  0  0  0
    2.9160   16.0854   21.4652 N   0  0  0  0  0  0  0  0  0  0  0  0
    1.9373   16.1606   21.2139 H   0  0  0  0  0  0  0  0  0  0  0  0
    3.6546   17.2842   21.4363 C   0  0  0  0  0  0  0  0  0  0  0  0
    4.4941   17.7110   22.4618 C   0  0  0  0  0  0  0  0  0  0  0  0
    5.2048   18.9176   22.3452 C   0  0  0  0  0  0  0  0  0  0  0  0
    5.0884   19.7399   21.2169 C   0  0  0  0  0  0  0  0  0  0  0  0
    4.2491   19.2847   20.1899 C   0  0  0  0  0  0  0  0  0  0  0  0
    3.5446   18.0780   20.2921 C   0  0  0  0  0  0  0  0  0  0  0  0
    5.7835   20.9523   21.0591 N   0  0  0  0  0  0  0  0  0  0  0  0
    6.5626   21.4409   22.1961 C   0  0  0  0  0  0  0  0  0  0  0  0
    4.9865   21.9894   20.3922 C   0  0  0  0  0  0  0  0  0  0  0  0
    0.6846   14.5301   22.1396 S   0  0  0  0  0  0  0  0  0  0  0  0
   -1.0238   13.9280   17.2282 C   0  0  0  0  0  0  0  0  0  0  0  0
   -0.5386   14.8645   18.3027 C   0  0  0  0  0  0  0  0  0  0  0  0
   -0.2091   14.3388   19.5564 C   0  0  0  0  0  0  0  0  0  0  0  0
    0.2280   15.1969   20.5535 C   0  0  0  0  0  0  0  0  0  0  0  0
    0.3670   16.5257   20.3727 N   0  0  0  0  0  0  0  0  0  0  0  0
    0.0687   17.0407   19.1685 C   0  0  0  0  0  0  0  0  0  0  0  0
    0.2269   18.4083   18.9840 C   0  0  0  0  0  0  0  0  0  0  0  0
   -0.0528   19.0291   17.7642 C   0  0  0  0  0  0  0  0  0  0  0  0
   -0.5088   18.2692   16.6978 C   0  0  0  0  0  0  0  0  0  0  0  0
   -0.6764   16.8916   16.8551 C   0  0  0  0  0  0  0  0  0  0  0  0
   -0.3915   16.2554   18.0859 C   0  0  0  0  0  0  0  0  0  0  0  0
 16 17  1  0  0  0
 17 18  2  0  0  0
 18 19  1  0  0  0
 19 15  1  0  0  0
 15  1  1  0  0  0
  1  2  1  0  0  0
  2  3  2  0  0  0
  2  4  1  0  0  0
  4  6  1  0  0  0
  6  7  1  0  0  0
  7  8  2  0  0  0
  8  9  1  0  0  0
  9 12  1  0  0  0
 12 13  1  0  0  0
 12 14  1  0  0  0
  9 10  2  0  0  0
 10 11  1  0  0  0
 19 20  2  0  0  0
 20 21  1  0  0  0
 21 22  2  0  0  0
 22 23  1  0  0  0
 23 24  2  0  0  0
 24 25  1  0  0  0
 25 26  2  0  0  0
 26 17  1  0  0  0
 11  6  2  0  0  0
 26 21  1  0  0  0
  4  5  1  0  0  0
M  END
> <minimizedAffinity>
-9.97804

$$$$
OCNT-2313851


 25 28  0  0  0  0  0  0  0  0999 V2000
    3.8430   16.5167   21.8683 C   0  0  0  0  0  0  0  0  0  0  0  0
    3.6046   15.2000   22.2138 C   0  0  0  0  0  0  0  0  0  0  0  0
    2.4510   14.6319   21.7295 C   0  0  0  0  0  0  0  0  0  0  0  0
    1.5733   15.2866   20.9546 N   0  0  0  0  0  0  0  0  0  0  0  0
    1.8696   16.5715   20.6790 C   0  0  0  0  0  0  0  0  0  0  0  0
    2.9758   17.2102   21.1115 N   0  0  0  0  0  0  0  0  0  0  0  0
    5.8497   19.0322   21.8682 C   0  0  0  0  0  0  0  0  0  0  0  0
    5.0248   18.4148   23.0336 C   0  0  0  0  0  0  0  0  0  0  0  0
    5.0173   17.1534   22.3352 N   0  0  0  0  0  0  0  0  0  0  0  0
    6.1078   17.5479   21.4821 C   0  0  0  0  0  0  0  0  0  0  0  0
    4.9415   19.8592   20.8888 C   0  0  0  0  0  0  0  0  0  0  0  0
    4.3748   19.4848   19.6951 C   0  0  0  0  0  0  0  0  0  0  0  0
    3.6817   20.5413   19.1739 N   0  0  0  0  0  0  0  0  0  0  0  0
    3.7891   21.5609   20.0161 N   0  0  0  0  0  0  0  0  0  0  0  0
    4.5248   21.1465   21.0621 N   0  0  0  0  0  0  0  0  0  0  0  0
    4.7982   22.0446   22.1520 C   0  0  0  0  0  0  0  0  0  0  0  0
    7.5585   20.7236   21.3879 C   0  0  0  0  0  0  0  0  0  0  0  0
    7.0239   19.7783   22.3067 O   0  0  0  0  0  0  0  0  0  0  0  0
    0.8991   17.3524   19.8273 C   0  0  0  0  0  0  0  0  0  0  0  0
    0.1906   16.5084   18.7921 C   0  0  0  0  0  0  0  0  0  0  0  0
   -0.1244   17.0406   17.5338 C   0  0  0  0  0  0  0  0  0  0  0  0
   -0.7676   16.2564   16.5750 C   0  0  0  0  0  0  0  0  0  0  0  0
   -1.0955   14.9323   16.8616 C   0  0  0  0  0  0  0  0  0  0  0  0
   -0.7762   14.3892   18.1047 C   0  0  0  0  0  0  0  0  0  0  0  0
   -0.1332   15.1716   19.0651 C   0  0  0  0  0  0  0  0  0  0  0  0
 17 18  1  0  0  0
 18  7  1  0  0  0
  7 11  1  0  0  0
 11 12  2  0  0  0
 12 13  1  0  0  0
 13 14  2  0  0  0
 14 15  1  0  0  0
 15 16  1  0  0  0
  7  8  1  0  0  0
  8  9  1  0  0  0
  9  1  1  0  0  0
  1  2  1  0  0  0
  2  3  2  0  0  0
  3  4  1  0  0  0
  4  5  2  0  0  0
  5 19  1  0  0  0
 19 20  1  0  0  0
 20 21  2  0  0  0
 21 22  1  0  0  0
 22 23  2  0  0  0
 23 24  1  0  0  0
 24 25  2  0  0  0
  5  6  1  0  0  0
  9 10  1  0  0  0
 10  7  1  0  0  0
 15 11  1  0  0  0
  6  1  2  0  0  0
 25 20  1  0  0  0
M  END
> <minimizedAffinity>
-7.47259

$$$$
OCNT-2313863


 25 27  0  0  0  0  0  0  0  0999 V2000
    3.5673   20.4148   19.0885 C   0  0  0  0  0  0  0  0  0  0  0  0
    4.4241   20.1002   20.2417 N   0  0  0  0  0  0  0  0  0  0  0  0
    5.2082   21.1690   20.6828 C   0  0  0  0  0  0  0  0  0  0  0  0
    5.1181   22.2814   20.1437 O   0  0  0  0  0  0  0  0  0  0  0  0
    6.1607   21.0143   21.8579 C   0  0  0  0  0  0  0  0  0  0  0  0
    5.3832   21.0165   23.1823 C   0  0  0  0  0  0  0  0  0  0  0  0
    7.1345   22.2168   21.8815 C   0  0  0  0  0  0  0  0  0  0  0  0
    6.9786   19.7611   21.5845 C   0  0  0  0  0  0  0  0  0  0  0  0
    6.4077   18.6186   22.1827 O   0  0  0  0  0  0  0  0  0  0  0  0
    5.2379   18.1460   21.6685 C   0  0  0  0  0  0  0  0  0  0  0  0
    4.9964   16.8470   22.1570 C   0  0  0  0  0  0  0  0  0  0  0  0
    3.8728   16.1192   21.7842 C   0  0  0  0  0  0  0  0  0  0  0  0
    2.9516   16.6834   20.9153 C   0  0  0  0  0  0  0  0  0  0  0  0
    3.1849   17.9828   20.4443 C   0  0  0  0  0  0  0  0  0  0  0  0
    4.3253   18.7609   20.7954 C   0  0  0  0  0  0  0  0  0  0  0  0
    1.8295   15.8996   20.5735 N   0  0  0  0  0  0  0  0  0  0  0  0
    1.2368   14.8866   21.3107 C   0  0  0  0  0  0  0  0  0  0  0  0
    1.5789   14.5144   22.4307 O   0  0  0  0  0  0  0  0  0  0  0  0
    1.4318   16.0798   19.6584 H   0  0  0  0  0  0  0  0  0  0  0  0
    0.0109   14.2719   20.6417 C   0  0  0  0  0  0  0  0  0  0  0  0
   -0.3197   14.8850   19.3091 C   0  0  0  0  0  0  0  0  0  0  0  0
   -0.3502   16.2440   19.0521 C   0  0  0  0  0  0  0  0  0  0  0  0
   -0.7453   16.6031   17.4275 S   0  0  0  0  0  0  0  0  0  0  0  0
   -0.9070   14.9467   17.0443 C   0  0  0  0  0  0  0  0  0  0  0  0
   -0.6591   14.1387   18.1313 C   0  0  0  0  0  0  0  0  0  0  0  0
  1  2  1  0  0  0
  2  3  1  0  0  0
  3  4  2  0  0  0
  3  5  1  0  0  0
  5  6  1  0  0  0
  5  7  1  0  0  0
  5  8  1  0  0  0
  8  9  1  0  0  0
  9 10  1  0  0  0
 10 11  1  0  0  0
 11 12  2  0  0  0
 12 13  1  0  0  0
 13 16  1  0  0  0
 16 17  1  0  0  0
 17 18  2  0  0  0
 17 20  1  0  0  0
 20 21  1  0  0  0
 21 22  2  0  0  0
 22 23  1  0  0  0
 23 24  1  0  0  0
 24 25  2  0  0  0
 13 14  2  0  0  0
 14 15  1  0  0  0
 15  2  1  0  0  0
 15 10  2  0  0  0
 25 21  1  0  0  0
 16 19  1  0  0  0
M  END
> <minimizedAffinity>
-7.59757

$$$$
OCNT-2313865


 27 30  0  0  0  0  0  0  0  0999 V2000
    3.9278   16.1722   21.7360 O   0  0  0  0  0  0  0  0  0  0  0  0
    3.4750   17.1060   21.0778 C   0  0  0  0  0  0  0  0  0  0  0  0
    2.2456   17.0829   20.4574 N   0  0  0  0  0  0  0  0  0  0  0  0
    4.1900   18.2957   20.9181 N   0  0  0  0  0  0  0  0  0  0  0  0
    3.8327   19.3641   19.9848 C   0  0  0  0  0  0  0  0  0  0  0  0
    5.0100   20.2708   19.6521 C   0  0  0  0  0  0  0  0  0  0  0  0
    5.6293   20.8653   20.9251 C   0  0  0  0  0  0  0  0  0  0  0  0
    5.6755   19.8720   22.0984 C   0  0  0  0  0  0  0  0  0  0  0  0
    5.4522   18.4340   21.6456 C   0  0  0  0  0  0  0  0  0  0  0  0
    1.8805   17.9280   20.0527 H   0  0  0  0  0  0  0  0  0  0  0  0
    1.3993   15.9893   20.4477 C   0  0  0  0  0  0  0  0  0  0  0  0
    1.4480   14.9763   21.3765 C   0  0  0  0  0  0  0  0  0  0  0  0
    0.4476   14.1032   21.0420 N   0  0  0  0  0  0  0  0  0  0  0  0
   -0.2305   14.4696   19.9355 N   0  0  0  0  0  0  0  0  0  0  0  0
    0.3442   15.6249   19.5831 C   0  0  0  0  0  0  0  0  0  0  0  0
    0.1155   12.8563   21.7185 C   0  0  0  0  0  0  0  0  0  0  0  0
   -0.6615   13.0960   22.9895 C   0  0  0  0  0  0  0  0  0  0  0  0
   -1.4261   12.0640   23.5567 C   0  0  0  0  0  0  0  0  0  0  0  0
   -2.1465   12.2796   24.7318 C   0  0  0  0  0  0  0  0  0  0  0  0
   -2.1068   13.5251   25.3555 C   0  0  0  0  0  0  0  0  0  0  0  0
   -1.3487   14.5566   24.8042 C   0  0  0  0  0  0  0  0  0  0  0  0
   -0.6289   14.3452   23.6264 C   0  0  0  0  0  0  0  0  0  0  0  0
    6.9321   21.4629   20.6516 N   0  0  0  0  0  0  0  0  0  0  0  0
    8.0880   21.2160   21.3412 C   0  0  0  0  0  0  0  0  0  0  0  0
    9.0429   21.9933   20.7284 C   0  0  0  0  0  0  0  0  0  0  0  0
    8.4974   22.7040   19.6914 N   0  0  0  0  0  0  0  0  0  0  0  0
    7.2281   22.3639   19.6666 C   0  0  0  0  0  0  0  0  0  0  0  0
  1  2  2  0  0  0
  2  3  1  0  0  0
  3 11  1  0  0  0
 11 12  2  0  0  0
 12 13  1  0  0  0
 13 16  1  0  0  0
 16 17  1  0  0  0
 17 18  2  0  0  0
 18 19  1  0  0  0
 19 20  2  0  0  0
 20 21  1  0  0  0
 21 22  2  0  0  0
 13 14  1  0  0  0
 14 15  2  0  0  0
  2  4  1  0  0  0
  4  5  1  0  0  0
  5  6  1  0  0  0
  6  7  1  0  0  0
  7 23  1  0  0  0
 23 24  1  0  0  0
 24 25  2  0  0  0
 25 26  1  0  0  0
 26 27  2  0  0  0
  7  8  1  0  0  0
  8  9  1  0  0  0
 15 11  1  0  0  0
  9  4  1  0  0  0
 22 17  1  0  0  0
 27 23  1  0  0  0
  3 10  1  0  0  0
M  END
> <minimizedAffinity>
-0.37899

$$$$
OCNT-2313872


 23 26  0  0  0  0  0  0  0  0999 V2000
    2.4111   17.0385   21.5030 N   0  0  0  0  0  0  0  0  0  0  0  0
    2.7078   15.7005   21.7131 C   0  0  0  0  0  0  0  0  0  0  0  0
    3.8281   15.2118   21.6411 O   0  0  0  0  0  0  0  0  0  0  0  0
    1.4783   17.3234   21.7747 H   0  0  0  0  0  0  0  0  0  0  0  0
    7.8186   21.7677   20.8792 C   0  0  0  0  0  0  0  0  0  0  0  0
    6.6185   20.9147   20.7642 C   0  0  0  0  0  0  0  0  0  0  0  0
    6.3188   19.9786   21.6699 N   0  0  0  0  0  0  0  0  0  0  0  0
    5.1641   19.4576   21.1862 N   0  0  0  0  0  0  0  0  0  0  0  0
    4.3825   18.4323   21.7164 C   0  0  0  0  0  0  0  0  0  0  0  0
    3.2585   18.0418   21.0876 C   0  0  0  0  0  0  0  0  0  0  0  0
    2.8993   18.7255   19.8425 C   0  0  0  0  0  0  0  0  0  0  0  0
    3.6531   19.7166   19.3284 C   0  0  0  0  0  0  0  0  0  0  0  0
    4.8358   20.1190   20.0017 C   0  0  0  0  0  0  0  0  0  0  0  0
    5.7365   21.0335   19.7258 N   0  0  0  0  0  0  0  0  0  0  0  0
    1.5573   14.9166   22.0919 C   0  0  0  0  0  0  0  0  0  0  0  0
    1.2655   14.3726   23.3302 C   0  0  0  0  0  0  0  0  0  0  0  0
    0.0272   13.7334   23.1647 C   0  0  0  0  0  0  0  0  0  0  0  0
   -0.4399   13.8385   21.9212 N   0  0  0  0  0  0  0  0  0  0  0  0
    0.5451   14.4844   21.2692 N   0  0  0  0  0  0  0  0  0  0  0  0
    0.4564   14.6112   19.8322 C   0  0  0  0  0  0  0  0  0  0  0  0
   -0.7409   13.0080   24.2979 C   0  0  0  0  0  0  0  0  0  0  0  0
   -2.2311   13.2011   24.4133 C   0  0  0  0  0  0  0  0  0  0  0  0
   -1.6826   11.8835   23.9508 C   0  0  0  0  0  0  0  0  0  0  0  0
  5  6  1  0  0  0
  6  7  2  0  0  0
  7  8  1  0  0  0
  8  9  1  0  0  0
  9 10  2  0  0  0
 10  1  1  0  0  0
  1  2  1  0  0  0
  2  3  2  0  0  0
  2 15  1  0  0  0
 15 16  2  0  0  0
 16 17  1  0  0  0
 17 21  1  0  0  0
 21 22  1  0  0  0
 22 23  1  0  0  0
 17 18  2  0  0  0
 18 19  1  0  0  0
 19 20  1  0  0  0
 10 11  1  0  0  0
 11 12  2  0  0  0
 12 13  1  0  0  0
 13 14  2  0  0  0
 14  6  1  0  0  0
 13  8  1  0  0  0
 19 15  1  0  0  0
 23 21  1  0  0  0
  1  4  1  0  0  0
M  END
> <minimizedAffinity>
-6.80116

$$$$
OCNT-2313876


 25 27  0  0  0  0  0  0  0  0999 V2000
    1.1187   20.7379   19.3792 O   0  0  0  0  0  0  0  0  0  0  0  0
    2.0519   19.9505   19.4799 C   0  0  0  0  0  0  0  0  0  0  0  0
    1.9749   18.6107   19.1696 N   0  0  0  0  0  0  0  0  0  0  0  0
    2.7928   18.0560   19.3926 H   0  0  0  0  0  0  0  0  0  0  0  0
    3.3980   20.3880   19.9722 C   0  0  0  0  0  0  0  0  0  0  0  0
    3.8338   21.6846   19.7274 C   0  0  0  0  0  0  0  0  0  0  0  0
    5.0846   22.0555   20.2076 C   0  0  0  0  0  0  0  0  0  0  0  0
    5.8454   21.1244   20.9083 C   0  0  0  0  0  0  0  0  0  0  0  0
    5.3252   19.8529   21.1048 C   0  0  0  0  0  0  0  0  0  0  0  0
    4.1192   19.4530   20.6555 N   0  0  0  0  0  0  0  0  0  0  0  0
    6.1260   18.9692   21.7988 O   0  0  0  0  0  0  0  0  0  0  0  0
    5.3846   17.9668   22.5044 C   0  0  0  0  0  0  0  0  0  0  0  0
    4.8057   16.9785   21.5075 C   0  0  0  0  0  0  0  0  0  0  0  0
    5.7681   16.5897   20.6304 F   0  0  0  0  0  0  0  0  0  0  0  0
    4.4052   15.8555   22.1583 F   0  0  0  0  0  0  0  0  0  0  0  0
    0.7206   17.9600   18.8793 C   0  0  0  0  0  0  0  0  0  0  0  0
    0.6779   16.5648   19.4742 C   0  0  0  0  0  0  0  0  0  0  0  0
    1.5308   16.2311   20.5328 C   0  0  0  0  0  0  0  0  0  0  0  0
    1.4798   14.9485   21.0566 C   0  0  0  0  0  0  0  0  0  0  0  0
    0.6482   13.9849   20.6078 N   0  0  0  0  0  0  0  0  0  0  0  0
   -0.1616   14.3184   19.5816 C   0  0  0  0  0  0  0  0  0  0  0  0
   -0.1827   15.5718   18.9888 C   0  0  0  0  0  0  0  0  0  0  0  0
    0.5301   17.9078   17.3830 C   0  0  0  0  0  0  0  0  0  0  0  0
   -0.0752   19.0848   16.6550 C   0  0  0  0  0  0  0  0  0  0  0  0
   -0.8542   17.8063   16.7884 C   0  0  0  0  0  0  0  0  0  0  0  0
  1  2  2  0  0  0
  2  3  1  0  0  0
  3 16  1  0  0  0
 16 17  1  0  0  0
 17 18  2  0  0  0
 18 19  1  0  0  0
 19 20  2  0  0  0
 20 21  1  0  0  0
 21 22  2  0  0  0
 16 23  1  0  0  0
 23 24  1  0  0  0
 24 25  1  0  0  0
  2  5  1  0  0  0
  5  6  2  0  0  0
  6  7  1  0  0  0
  7  8  2  0  0  0
  8  9  1  0  0  0
  9 11  1  0  0  0
 11 12  1  0  0  0
 12 13  1  0  0  0
 13 14  1  0  0  0
 13 15  1  0  0  0
  9 10  2  0  0  0
 22 17  1  0  0  0
 25 23  1  0  0  0
 10  5  1  0  0  0
  3  4  1  0  0  0
M  END
> <minimizedAffinity>
-9.39324

$$$$
OCNT-2313886


 26 29  0  0  0  0  0  0  0  0999 V2000
    0.6401   17.3023   19.3756 C   0  0  0  0  0  0  0  0  0  0  0  0
    2.0739   16.9364   19.8074 C   0  0  0  0  0  0  0  0  0  0  0  0
    2.8011   18.0885   20.3548 N   0  0  0  0  0  0  0  0  0  0  0  0
    3.7943   17.8382   21.3084 C   0  0  0  0  0  0  0  0  0  0  0  0
    3.8220   16.7856   21.9509 O   0  0  0  0  0  0  0  0  0  0  0  0
    2.6771   19.3201   19.5692 C   0  0  0  0  0  0  0  0  0  0  0  0
    1.2289   19.5754   19.1373 C   0  0  0  0  0  0  0  0  0  0  0  0
    0.6603   18.4361   18.4830 O   0  0  0  0  0  0  0  0  0  0  0  0
    4.8556   18.8594   21.6025 C   0  0  0  0  0  0  0  0  0  0  0  0
    5.4653   18.8165   22.8581 C   0  0  0  0  0  0  0  0  0  0  0  0
    6.4864   19.7214   23.1559 C   0  0  0  0  0  0  0  0  0  0  0  0
    6.8598   20.6278   22.1530 C   0  0  0  0  0  0  0  0  0  0  0  0
    7.8175   21.6706   22.0305 C   0  0  0  0  0  0  0  0  0  0  0  0
    7.7022   22.1977   20.7608 C   0  0  0  0  0  0  0  0  0  0  0  0
    6.7096   21.5100   20.1098 N   0  0  0  0  0  0  0  0  0  0  0  0
    6.1846   20.5564   20.9391 C   0  0  0  0  0  0  0  0  0  0  0  0
    5.1914   19.7151   20.5981 N   0  0  0  0  0  0  0  0  0  0  0  0
    6.3976   21.6633   19.1624 H   0  0  0  0  0  0  0  0  0  0  0  0
   -1.2485   13.8963   17.4575 C   0  0  0  0  0  0  0  0  0  0  0  0
   -1.2601   15.1501   16.8361 C   0  0  0  0  0  0  0  0  0  0  0  0
   -0.6586   16.2521   17.4496 C   0  0  0  0  0  0  0  0  0  0  0  0
   -0.0427   16.1275   18.7028 C   0  0  0  0  0  0  0  0  0  0  0  0
   -0.0342   14.8686   19.3224 C   0  0  0  0  0  0  0  0  0  0  0  0
   -0.6339   13.7661   18.7080 C   0  0  0  0  0  0  0  0  0  0  0  0
   -3.1165   13.1285   15.9704 C   0  0  0  0  0  0  0  0  0  0  0  0
   -1.9139   12.7121   16.8043 C   0  0  0  0  0  0  0  0  0  0  0  0
 25 26  1  0  0  0
 26 19  1  0  0  0
 19 20  1  0  0  0
 20 21  2  0  0  0
 21 22  1  0  0  0
 22  1  1  0  0  0
  1  2  1  0  0  0
  2  3  1  0  0  0
  3  4  1  0  0  0
  4  5  2  0  0  0
  4  9  1  0  0  0
  9 10  1  0  0  0
 10 11  2  0  0  0
 11 12  1  0  0  0
 12 13  1  0  0  0
 13 14  2  0  0  0
 14 15  1  0  0  0
 15 16  1  0  0  0
 16 17  1  0  0  0
  3  6  1  0  0  0
  6  7  1  0  0  0
  7  8  1  0  0  0
 22 23  2  0  0  0
 23 24  1  0  0  0
 24 19  2  0  0  0
  8  1  1  0  0  0
 17  9  2  0  0  0
 16 12  2  0  0  0
 15 18  1  0  0  0
M  END
> <minimizedAffinity>
-3.35976

$$$$
OCNT-2313888


 25 27  0  0  0  0  0  0  0  0999 V2000
    4.9336   18.8906   21.8864 C   0  0  0  0  0  0  0  0  0  0  0  0
    4.4284   19.1098   20.4577 C   0  0  0  0  0  0  0  0  0  0  0  0
    3.2677   18.1317   20.3510 C   0  0  0  0  0  0  0  0  0  0  0  0
    3.6487   17.0238   21.2125 N   0  0  0  0  0  0  0  0  0  0  0  0
    2.8796   15.8992   21.5104 C   0  0  0  0  0  0  0  0  0  0  0  0
    3.1808   15.1776   22.4620 O   0  0  0  0  0  0  0  0  0  0  0  0
    4.7808   17.3779   22.0586 C   0  0  0  0  0  0  0  0  0  0  0  0
    1.7194   15.6268   20.6821 C   0  0  0  0  0  0  0  0  0  0  0  0
    0.8653   14.5464   20.5654 C   0  0  0  0  0  0  0  0  0  0  0  0
   -0.1039   14.8909   19.5905 C   0  0  0  0  0  0  0  0  0  0  0  0
    0.1909   16.1728   19.1716 C   0  0  0  0  0  0  0  0  0  0  0  0
    1.2924   16.6213   19.8430 O   0  0  0  0  0  0  0  0  0  0  0  0
   -0.4050   17.1002   18.2118 C   0  0  0  0  0  0  0  0  0  0  0  0
    0.4056   17.9135   17.4048 C   0  0  0  0  0  0  0  0  0  0  0  0
   -0.1585   18.8027   16.4844 C   0  0  0  0  0  0  0  0  0  0  0  0
   -1.5424   18.8912   16.3569 C   0  0  0  0  0  0  0  0  0  0  0  0
   -2.3625   18.0917   17.1482 C   0  0  0  0  0  0  0  0  0  0  0  0
   -1.7973   17.2036   18.0681 C   0  0  0  0  0  0  0  0  0  0  0  0
    6.3478   19.4179   22.0814 C   0  0  0  0  0  0  0  0  0  0  0  0
    7.2021   21.4607   20.5170 N   0  0  0  0  0  0  0  0  0  0  0  0
    6.4851   21.2003   22.0051 S   0  0  0  0  0  0  0  0  0  0  0  0
    5.1697   21.7853   21.9168 O   0  0  0  0  0  0  0  0  0  0  0  0
    7.4550   21.6389   22.9803 O   0  0  0  0  0  0  0  0  0  0  0  0
    6.5754   21.9995   19.9138 H   0  0  0  0  0  0  0  0  0  0  0  0
    8.1138   21.9065   20.6412 H   0  0  0  0  0  0  0  0  0  0  0  0
 20 21  1  0  0  0
 21 22  2  0  0  0
 21 23  2  0  0  0
 21 19  1  0  0  0
 19  1  1  0  0  0
  1  2  1  0  0  0
  2  3  1  0  0  0
  3  4  1  0  0  0
  4  5  1  0  0  0
  5  6  2  0  0  0
  5  8  1  0  0  0
  8  9  2  0  0  0
  9 10  1  0  0  0
 10 11  2  0  0  0
 11 13  1  0  0  0
 13 14  2  0  0  0
 14 15  1  0  0  0
 15 16  2  0  0  0
 16 17  1  0  0  0
 17 18  2  0  0  0
 11 12  1  0  0  0
  4  7  1  0  0  0
  7  1  1  0  0  0
 12  8  1  0  0  0
 18 13  1  0  0  0
 20 24  1  0  0  0
 20 25  1  0  0  0
M  END
> <minimizedAffinity>
-9.94587

$$$$
OCNT-2313895


 25 27  0  0  0  0  0  0  0  0999 V2000
    1.5506   16.1806   20.3847 C   0  0  0  0  0  0  0  0  0  0  0  0
    1.3094   14.9662   21.0220 C   0  0  0  0  0  0  0  0  0  0  0  0
    2.2771   14.4463   21.8755 C   0  0  0  0  0  0  0  0  0  0  0  0
    3.4607   15.1481   22.0766 C   0  0  0  0  0  0  0  0  0  0  0  0
    3.6344   16.3532   21.4178 C   0  0  0  0  0  0  0  0  0  0  0  0
    2.7033   16.8706   20.5895 N   0  0  0  0  0  0  0  0  0  0  0  0
   -2.2213   18.7156   16.7466 C   0  0  0  0  0  0  0  0  0  0  0  0
   -1.2715   18.0565   17.7014 C   0  0  0  0  0  0  0  0  0  0  0  0
   -0.4015   18.8255   18.4772 C   0  0  0  0  0  0  0  0  0  0  0  0
    0.5087   18.2093   19.3432 C   0  0  0  0  0  0  0  0  0  0  0  0
    0.5840   16.8096   19.4599 C   0  0  0  0  0  0  0  0  0  0  0  0
   -0.2842   16.0516   18.6543 C   0  0  0  0  0  0  0  0  0  0  0  0
   -1.1959   16.6640   17.7853 C   0  0  0  0  0  0  0  0  0  0  0  0
    4.7652   17.1568   21.5354 N   0  0  0  0  0  0  0  0  0  0  0  0
    5.0698   18.0860   22.4983 C   0  0  0  0  0  0  0  0  0  0  0  0
    4.3708   18.3760   23.4665 O   0  0  0  0  0  0  0  0  0  0  0  0
    5.4360   16.9975   20.7931 H   0  0  0  0  0  0  0  0  0  0  0  0
    6.4170   18.7936   22.2807 C   0  0  0  0  0  0  0  0  0  0  0  0
    6.3273   20.2413   22.0491 N   0  0  0  0  0  0  0  0  0  0  0  0
    7.2834   21.0805   22.7569 C   0  0  0  0  0  0  0  0  0  0  0  0
    5.3392   20.8448   21.2782 C   0  0  0  0  0  0  0  0  0  0  0  0
    5.2477   22.0575   21.1284 O   0  0  0  0  0  0  0  0  0  0  0  0
    4.3713   19.9484   20.5835 C   0  0  0  0  0  0  0  0  0  0  0  0
    3.3559   20.5252   19.6218 C   0  0  0  0  0  0  0  0  0  0  0  0
    4.4955   19.7098   19.0935 C   0  0  0  0  0  0  0  0  0  0  0  0
  7  8  1  0  0  0
  8  9  1  0  0  0
  9 10  2  0  0  0
 10 11  1  0  0  0
 11  1  1  0  0  0
  1  2  1  0  0  0
  2  3  2  0  0  0
  3  4  1  0  0  0
  4  5  2  0  0  0
  5 14  1  0  0  0
 14 15  1  0  0  0
 15 16  2  0  0  0
 15 18  1  0  0  0
 18 19  1  0  0  0
 19 20  1  0  0  0
 19 21  1  0  0  0
 21 22  2  0  0  0
 21 23  1  0  0  0
 23 24  1  0  0  0
 24 25  1  0  0  0
  5  6  1  0  0  0
 11 12  2  0  0  0
 12 13  1  0  0  0
 13  8  2  0  0  0
  6  1  2  0  0  0
 25 23  1  0  0  0
 14 17  1  0  0  0
M  END
> <minimizedAffinity>
-10.42489

$$$$
OCNT-2313906


 35 38  0  0  0  0  0  0  0  0999 V2000
    2.3060   17.5157   21.0851 O   0  0  0  0  0  0  0  0  0  0  0  0
    2.2460   16.3076   20.9063 C   0  0  0  0  0  0  0  0  0  0  0  0
    1.2615   15.6205   20.2266 N   0  0  0  0  0  0  0  0  0  0  0  0
    3.1717   15.4222   21.4254 N   0  0  0  0  0  0  0  0  0  0  0  0
    1.2131   14.6336   20.4257 H   0  0  0  0  0  0  0  0  0  0  0  0
    3.2944   14.5884   20.8665 H   0  0  0  0  0  0  0  0  0  0  0  0
    4.3937   15.9179   22.0691 C   0  0  0  0  0  0  0  0  0  0  0  0
    5.6282   15.3120   21.4117 C   0  0  0  0  0  0  0  0  0  0  0  0
    5.8620   15.9104   20.0341 C   0  0  0  0  0  0  0  0  0  0  0  0
    6.0112   17.4155   20.1726 C   0  0  0  0  0  0  0  0  0  0  0  0
    4.8653   18.0398   20.8440 N   0  0  0  0  0  0  0  0  0  0  0  0
    4.3411   17.4623   22.0138 C   0  0  0  0  0  0  0  0  0  0  0  0
    3.6802   18.0879   22.8455 O   0  0  0  0  0  0  0  0  0  0  0  0
    4.7307   19.4492   20.6180 C   0  0  0  0  0  0  0  0  0  0  0  0
    3.7175   19.9365   19.7788 C   0  0  0  0  0  0  0  0  0  0  0  0
    3.5510   21.3103   19.5840 C   0  0  0  0  0  0  0  0  0  0  0  0
    4.3980   22.2159   20.2155 C   0  0  0  0  0  0  0  0  0  0  0  0
    5.4243   21.7498   21.0349 C   0  0  0  0  0  0  0  0  0  0  0  0
    5.5945   20.3748   21.2343 C   0  0  0  0  0  0  0  0  0  0  0  0
    6.9569   19.8726   22.1804 Cl  0  0  0  0  0  0  0  0  0  0  0  0
    0.2139   16.1627   19.4583 C   0  0  0  0  0  0  0  0  0  0  0  0
   -0.3971   15.4972   18.3969 C   0  0  0  0  0  0  0  0  0  0  0  0
   -1.4552   16.0919   17.6920 C   0  0  0  0  0  0  0  0  0  0  0  0
   -1.9179   17.3598   18.0396 C   0  0  0  0  0  0  0  0  0  0  0  0
   -1.3051   18.0261   19.1067 C   0  0  0  0  0  0  0  0  0  0  0  0
   -0.2532   17.4310   19.8130 C   0  0  0  0  0  0  0  0  0  0  0  0
   -2.9720   18.0287   17.3844 N   0  0  0  0  0  0  0  0  0  0  0  0
   -2.8799   18.9262   16.3256 C   0  0  0  0  0  0  0  0  0  0  0  0
   -1.8479   19.2860   15.7692 O   0  0  0  0  0  0  0  0  0  0  0  0
   -3.9043   17.7906   17.6977 H   0  0  0  0  0  0  0  0  0  0  0  0
   -4.2642   19.4832   15.9236 C   0  0  0  0  0  0  0  0  0  0  0  0
   -4.1869   21.0000   15.7492 C   0  0  0  0  0  0  0  0  0  0  0  0
   -5.0505   21.2560   14.5388 C   0  0  0  0  0  0  0  0  0  0  0  0
   -4.8382   19.9960   13.7333 C   0  0  0  0  0  0  0  0  0  0  0  0
   -4.7766   18.9426   14.6989 O   0  0  0  0  0  0  0  0  0  0  0  0
  1  2  2  0  0  0
  2  3  1  0  0  0
  3 21  1  0  0  0
 21 22  1  0  0  0
 22 23  2  0  0  0
 23 24  1  0  0  0
 24 27  1  0  0  0
 27 28  1  0  0  0
 28 29  2  0  0  0
 28 31  1  0  0  0
 31 32  1  0  0  0
 32 33  1  0  0  0
 33 34  1  0  0  0
 34 35  1  0  0  0
 24 25  2  0  0  0
 25 26  1  0  0  0
  2  4  1  0  0  0
  4  7  1  0  0  0
  7  8  1  0  0  0
  8  9  1  0  0  0
  9 10  1  0  0  0
 10 11  1  0  0  0
 11 14  1  0  0  0
 14 15  2  0  0  0
 15 16  1  0  0  0
 16 17  2  0  0  0
 17 18  1  0  0  0
 18 19  2  0  0  0
 19 20  1  0  0  0
 11 12  1  0  0  0
 12 13  2  0  0  0
 26 21  2  0  0  0
 12  7  1  0  0  0
 35 31  1  0  0  0
 19 14  1  0  0  0
  3  5  1  0  0  0
 27 30  1  0  0  0
  4  6  1  0  0  0
M  END
> <minimizedAffinity>
6.37885

$$$$
OCNT-2313910


 27 29  0  0  0  0  0  0  0  0999 V2000
    1.3005   15.1374   20.6537 C   0  0  0  0  0  0  0  0  0  0  0  0
    0.4499   14.7787   21.8719 C   0  0  0  0  0  0  0  0  0  0  0  0
    3.8926   14.0726   22.2437 C   0  0  0  0  0  0  0  0  0  0  0  0
    3.6606   15.4439   21.7159 C   0  0  0  0  0  0  0  0  0  0  0  0
    2.5441   15.8956   21.0313 C   0  0  0  0  0  0  0  0  0  0  0  0
    2.7645   17.5510   20.6231 S   0  0  0  0  0  0  0  0  0  0  0  0
    4.3050   17.5570   21.3915 C   0  0  0  0  0  0  0  0  0  0  0  0
    4.6484   16.3942   21.9109 N   0  0  0  0  0  0  0  0  0  0  0  0
    5.1616   18.7615   21.4396 C   0  0  0  0  0  0  0  0  0  0  0  0
    6.3177   18.8633   22.2350 C   0  0  0  0  0  0  0  0  0  0  0  0
    7.0891   20.0314   22.2366 C   0  0  0  0  0  0  0  0  0  0  0  0
    6.7133   21.1063   21.4425 C   0  0  0  0  0  0  0  0  0  0  0  0
    7.4540   22.2217   21.4466 F   0  0  0  0  0  0  0  0  0  0  0  0
    5.5812   21.0372   20.6442 C   0  0  0  0  0  0  0  0  0  0  0  0
    4.8118   19.8702   20.6433 C   0  0  0  0  0  0  0  0  0  0  0  0
    0.5559   15.9321   19.6930 N   0  0  0  0  0  0  0  0  0  0  0  0
   -0.3131   15.3513   18.7956 C   0  0  0  0  0  0  0  0  0  0  0  0
   -0.5053   14.1371   18.7647 O   0  0  0  0  0  0  0  0  0  0  0  0
    0.5630   16.9350   19.8169 H   0  0  0  0  0  0  0  0  0  0  0  0
   -1.0845   16.3407   17.9046 C   0  0  0  0  0  0  0  0  0  0  0  0
   -1.0634   17.7873   18.3721 C   0  0  0  0  0  0  0  0  0  0  0  0
   -1.4890   18.5242   17.1232 C   0  0  0  0  0  0  0  0  0  0  0  0
   -0.9904   19.7740   17.0917 F   0  0  0  0  0  0  0  0  0  0  0  0
   -2.8422   18.6217   17.0985 F   0  0  0  0  0  0  0  0  0  0  0  0
   -1.0067   17.6599   15.9601 C   0  0  0  0  0  0  0  0  0  0  0  0
   -0.4465   16.4463   16.5743 N   0  0  0  0  0  0  0  0  0  0  0  0
   -0.6121   15.6048   16.0221 H   0  0  0  0  0  0  0  0  0  0  0  0
  3  4  1  0  0  0
  4  5  2  0  0  0
  5  1  1  0  0  0
  1  2  1  0  0  0
  1 16  1  0  0  0
 16 17  1  0  0  0
 17 18  2  0  0  0
 17 20  1  0  0  0
 20 21  1  0  0  0
 21 22  1  0  0  0
 22 23  1  0  0  0
 22 24  1  0  0  0
 22 25  1  0  0  0
 25 26  1  0  0  0
  5  6  1  0  0  0
  6  7  1  0  0  0
  7  9  1  0  0  0
  9 10  1  0  0  0
 10 11  2  0  0  0
 11 12  1  0  0  0
 12 13  1  0  0  0
 12 14  2  0  0  0
 14 15  1  0  0  0
  7  8  2  0  0  0
  8  4  1  0  0  0
 26 20  1  0  0  0
 15  9  2  0  0  0
 16 19  1  0  0  0
 26 27  1  0  0  0
M  END
> <minimizedAffinity>
-9.16980

$$$$
OCNT-2313912


 23 26  0  0  0  0  0  0  0  0999 V2000
    2.4058   15.6445   21.1518 N   0  0  0  0  0  0  0  0  0  0  0  0
    3.5341   15.6469   21.8945 N   0  0  0  0  0  0  0  0  0  0  0  0
    3.9771   16.8977   21.7116 C   0  0  0  0  0  0  0  0  0  0  0  0
    3.2166   17.6450   20.8529 N   0  0  0  0  0  0  0  0  0  0  0  0
    2.2280   16.8395   20.5044 C   0  0  0  0  0  0  0  0  0  0  0  0
    1.0850   17.2638   19.4991 C   0  0  0  0  0  0  0  0  0  0  0  0
    1.3076   18.2268   18.5778 N   0  0  0  0  0  0  0  0  0  0  0  0
    0.1510   18.2993   17.9434 N   0  0  0  0  0  0  0  0  0  0  0  0
   -0.2369   19.1502   16.8378 C   0  0  0  0  0  0  0  0  0  0  0  0
   -1.5364   18.4609   16.3772 C   0  0  0  0  0  0  0  0  0  0  0  0
   -2.0409   17.6234   17.5863 C   0  0  0  0  0  0  0  0  0  0  0  0
   -0.8080   17.4508   18.3722 C   0  0  0  0  0  0  0  0  0  0  0  0
   -0.2461   16.7423   19.3976 C   0  0  0  0  0  0  0  0  0  0  0  0
    0.6033   14.4416   22.3241 C   0  0  0  0  0  0  0  0  0  0  0  0
    1.5831   14.4572   21.1642 C   0  0  0  0  0  0  0  0  0  0  0  0
    5.2193   17.4315   22.3502 C   0  0  0  0  0  0  0  0  0  0  0  0
    5.0371   18.7767   22.8095 O   0  0  0  0  0  0  0  0  0  0  0  0
    5.6414   19.7687   22.0881 C   0  0  0  0  0  0  0  0  0  0  0  0
    4.7602   20.5910   21.3804 C   0  0  0  0  0  0  0  0  0  0  0  0
    5.2393   21.6450   20.6006 C   0  0  0  0  0  0  0  0  0  0  0  0
    6.6089   21.8831   20.5234 C   0  0  0  0  0  0  0  0  0  0  0  0
    7.4946   21.0670   21.2252 C   0  0  0  0  0  0  0  0  0  0  0  0
    7.0135   20.0111   22.0065 C   0  0  0  0  0  0  0  0  0  0  0  0
 14 15  1  0  0  0
 15  1  1  0  0  0
  1  2  1  0  0  0
  2  3  2  0  0  0
  3 16  1  0  0  0
 16 17  1  0  0  0
 17 18  1  0  0  0
 18 19  2  0  0  0
 19 20  1  0  0  0
 20 21  2  0  0  0
 21 22  1  0  0  0
 22 23  2  0  0  0
  3  4  1  0  0  0
  4  5  2  0  0  0
  5  6  1  0  0  0
  6  7  2  0  0  0
  7  8  1  0  0  0
  8  9  1  0  0  0
  9 10  1  0  0  0
 10 11  1  0  0  0
 11 12  1  0  0  0
 12 13  2  0  0  0
  5  1  1  0  0  0
 13  6  1  0  0  0
 23 18  1  0  0  0
 12  8  1  0  0  0
M  END
> <minimizedAffinity>
-9.69978

$$$$
OCNT-2313913


 26 29  0  0  0  0  0  0  0  0999 V2000
   -0.0734   15.9327   19.3680 C   0  0  0  0  0  0  0  0  0  0  0  0
   -0.0956   14.5413   19.1247 C   0  0  0  0  0  0  0  0  0  0  0  0
   -0.6344   14.0226   17.9529 C   0  0  0  0  0  0  0  0  0  0  0  0
   -1.1414   14.8891   16.9969 C   0  0  0  0  0  0  0  0  0  0  0  0
   -1.1195   16.2697   17.2208 C   0  0  0  0  0  0  0  0  0  0  0  0
   -0.6231   16.8246   18.4145 C   0  0  0  0  0  0  0  0  0  0  0  0
   -0.5534   18.2079   18.6178 N   0  0  0  0  0  0  0  0  0  0  0  0
   -1.4668   18.6410   18.7091 H   0  0  0  0  0  0  0  0  0  0  0  0
    0.3775   19.0692   17.8893 C   0  0  0  0  0  0  0  0  0  0  0  0
    1.4038   19.7966   18.7007 C   0  0  0  0  0  0  0  0  0  0  0  0
    1.3664   21.0436   19.2918 C   0  0  0  0  0  0  0  0  0  0  0  0
    2.5015   21.4164   19.9848 N   0  0  0  0  0  0  0  0  0  0  0  0
    3.4042   20.4612   19.9098 C   0  0  0  0  0  0  0  0  0  0  0  0
    2.9276   19.0709   19.0229 S   0  0  0  0  0  0  0  0  0  0  0  0
    4.8146   20.6250   20.5949 C   0  0  0  0  0  0  0  0  0  0  0  0
    5.4140   19.6678   21.3849 C   0  0  0  0  0  0  0  0  0  0  0  0
    6.9505   20.1719   21.9544 S   0  0  0  0  0  0  0  0  0  0  0  0
    6.8153   21.6770   21.1508 C   0  0  0  0  0  0  0  0  0  0  0  0
    5.6267   21.7906   20.4629 C   0  0  0  0  0  0  0  0  0  0  0  0
    0.6093   16.3921   20.6413 C   0  0  0  0  0  0  0  0  0  0  0  0
    3.4024   16.9562   21.3289 O   0  0  0  0  0  0  0  0  0  0  0  0
    2.8986   15.8555   21.4820 C   0  0  0  0  0  0  0  0  0  0  0  0
    3.5523   14.6883   22.1809 C   0  0  0  0  0  0  0  0  0  0  0  0
    2.6446   13.5161   21.8224 C   0  0  0  0  0  0  0  0  0  0  0  0
    1.2876   14.1630   21.6304 C   0  0  0  0  0  0  0  0  0  0  0  0
    1.6233   15.4611   21.1019 N   0  0  0  0  0  0  0  0  0  0  0  0
 21 22  2  0  0  0
 22 23  1  0  0  0
 23 24  1  0  0  0
 24 25  1  0  0  0
 25 26  1  0  0  0
 26 20  1  0  0  0
 20  1  1  0  0  0
  1  2  2  0  0  0
  2  3  1  0  0  0
  3  4  2  0  0  0
  4  5  1  0  0  0
  5  6  2  0  0  0
  6  7  1  0  0  0
  7  9  1  0  0  0
  9 10  1  0  0  0
 10 11  2  0  0  0
 11 12  1  0  0  0
 12 13  2  0  0  0
 13 15  1  0  0  0
 15 16  2  0  0  0
 16 17  1  0  0  0
 17 18  1  0  0  0
 18 19  2  0  0  0
 13 14  1  0  0  0
 26 22  1  0  0  0
  6  1  1  0  0  0
 14 10  1  0  0  0
 19 15  1  0  0  0
  7  8  1  0  0  0
M  END
> <minimizedAffinity>
-7.22646

$$$$
OCNT-2313923


 22 23  0  0  0  0  0  0  0  0999 V2000
    1.5117   19.9021   19.3145 C   0  0  0  0  0  0  0  0  0  0  0  0
    0.8734   20.9148   19.5914 O   0  0  0  0  0  0  0  0  0  0  0  0
    2.8986   19.8086   19.4009 N   0  0  0  0  0  0  0  0  0  0  0  0
    3.6607   18.5894   19.1632 C   0  0  0  0  0  0  0  0  0  0  0  0
    0.2014   16.3801   19.0121 C   0  0  0  0  0  0  0  0  0  0  0  0
   -0.6674   16.5183   17.9225 C   0  0  0  0  0  0  0  0  0  0  0  0
   -0.8148   17.7572   17.2862 C   0  0  0  0  0  0  0  0  0  0  0  0
   -0.1003   18.8615   17.7516 C   0  0  0  0  0  0  0  0  0  0  0  0
    0.7451   18.7282   18.8528 C   0  0  0  0  0  0  0  0  0  0  0  0
    0.9128   17.4883   19.4722 C   0  0  0  0  0  0  0  0  0  0  0  0
    1.3544   15.3017   20.7955 C   0  0  0  0  0  0  0  0  0  0  0  0
    0.4382   15.2274   19.7105 O   0  0  0  0  0  0  0  0  0  0  0  0
   -1.6228   18.0180   16.2130 O   0  0  0  0  0  0  0  0  0  0  0  0
   -2.6365   18.9998   16.3851 C   0  0  0  0  0  0  0  0  0  0  0  0
    3.6602   21.0416   19.5831 C   0  0  0  0  0  0  0  0  0  0  0  0
    4.8748   20.8336   20.4581 C   0  0  0  0  0  0  0  0  0  0  0  0
    5.8771   21.8089   20.5392 C   0  0  0  0  0  0  0  0  0  0  0  0
    6.9811   21.6177   21.3701 C   0  0  0  0  0  0  0  0  0  0  0  0
    7.0955   20.4508   22.1262 C   0  0  0  0  0  0  0  0  0  0  0  0
    6.1122   19.4586   22.0505 C   0  0  0  0  0  0  0  0  0  0  0  0
    6.2136   18.2184   22.8877 C   0  0  0  0  0  0  0  0  0  0  0  0
    4.9998   19.6639   21.2242 C   0  0  0  0  0  0  0  0  0  0  0  0
 11 12  1  0  0  0
 12  5  1  0  0  0
  5  6  1  0  0  0
  6  7  2  0  0  0
  7 13  1  0  0  0
 13 14  1  0  0  0
  7  8  1  0  0  0
  8  9  2  0  0  0
  9  1  1  0  0  0
  1  2  2  0  0  0
  1  3  1  0  0  0
  3  4  1  0  0  0
  3 15  1  0  0  0
 15 16  1  0  0  0
 16 17  2  0  0  0
 17 18  1  0  0  0
 18 19  2  0  0  0
 19 20  1  0  0  0
 20 21  1  0  0  0
 20 22  2  0  0  0
  9 10  1  0  0  0
 10  5  2  0  0  0
 22 16  1  0  0  0
M  END
> <minimizedAffinity>
-9.17448

$$$$
OCNT-2313939


 25 27  0  0  0  0  0  0  0  0999 V2000
    3.0970   18.2385   20.6903 C   0  0  0  0  0  0  0  0  0  0  0  0
    3.1490   17.0515   20.9881 O   0  0  0  0  0  0  0  0  0  0  0  0
    1.9926   18.8752   20.1635 N   0  0  0  0  0  0  0  0  0  0  0  0
    2.1214   19.8096   19.7912 H   0  0  0  0  0  0  0  0  0  0  0  0
    6.4104   20.9925   21.1765 C   0  0  0  0  0  0  0  0  0  0  0  0
    6.4031   19.7717   21.7464 C   0  0  0  0  0  0  0  0  0  0  0  0
    5.4017   18.8122   21.6020 N   0  0  0  0  0  0  0  0  0  0  0  0
    5.6016   17.4544   22.1255 C   0  0  0  0  0  0  0  0  0  0  0  0
    4.2829   19.1497   20.8251 C   0  0  0  0  0  0  0  0  0  0  0  0
    4.1507   20.3175   20.1806 C   0  0  0  0  0  0  0  0  0  0  0  0
    5.2269   21.3246   20.3091 C   0  0  0  0  0  0  0  0  0  0  0  0
    5.1209   22.4000   19.7258 O   0  0  0  0  0  0  0  0  0  0  0  0
    8.4083   21.9963   20.3138 C   0  0  0  0  0  0  0  0  0  0  0  0
    7.3823   21.9615   21.2946 O   0  0  0  0  0  0  0  0  0  0  0  0
    0.7955   18.1724   19.8261 C   0  0  0  0  0  0  0  0  0  0  0  0
   -0.3079   18.8343   19.0562 C   0  0  0  0  0  0  0  0  0  0  0  0
    0.5273   17.7721   18.3874 C   0  0  0  0  0  0  0  0  0  0  0  0
   -0.0368   16.4020   18.0975 C   0  0  0  0  0  0  0  0  0  0  0  0
   -0.6201   16.0894   16.8567 C   0  0  0  0  0  0  0  0  0  0  0  0
   -1.1256   14.8122   16.5973 C   0  0  0  0  0  0  0  0  0  0  0  0
   -1.0456   13.8293   17.5764 C   0  0  0  0  0  0  0  0  0  0  0  0
   -1.5289   12.6064   17.3238 F   0  0  0  0  0  0  0  0  0  0  0  0
   -0.4681   14.0955   18.8070 C   0  0  0  0  0  0  0  0  0  0  0  0
    0.0308   15.3707   19.0517 C   0  0  0  0  0  0  0  0  0  0  0  0
    0.6002   15.6160   20.2423 F   0  0  0  0  0  0  0  0  0  0  0  0
 13 14  1  0  0  0
 14  5  1  0  0  0
  5  6  2  0  0  0
  6  7  1  0  0  0
  7  8  1  0  0  0
  7  9  1  0  0  0
  9  1  1  0  0  0
  1  2  2  0  0  0
  1  3  1  0  0  0
  3 15  1  0  0  0
 15 16  1  0  0  0
 16 17  1  0  0  0
 17 18  1  0  0  0
 18 19  1  0  0  0
 19 20  2  0  0  0
 20 21  1  0  0  0
 21 22  1  0  0  0
 21 23  2  0  0  0
 23 24  1  0  0  0
 24 25  1  0  0  0
  9 10  2  0  0  0
 10 11  1  0  0  0
 11 12  2  0  0  0
 11  5  1  0  0  0
 17 15  1  0  0  0
 24 18  2  0  0  0
  3  4  1  0  0  0
M  END
> <minimizedAffinity>
-7.38950

$$$$
OCNT-2313948


 25 27  0  0  0  0  0  0  0  0999 V2000
    1.0805   16.8746   19.7530 C   0  0  0  0  0  0  0  0  0  0  0  0
    0.6980   18.0377   19.8219 O   0  0  0  0  0  0  0  0  0  0  0  0
    2.2496   16.3758   20.2700 N   0  0  0  0  0  0  0  0  0  0  0  0
    2.4848   15.3892   20.2107 H   0  0  0  0  0  0  0  0  0  0  0  0
   -0.5100   16.2306   17.8311 C   0  0  0  0  0  0  0  0  0  0  0  0
   -1.2430   15.2307   17.1668 C   0  0  0  0  0  0  0  0  0  0  0  0
   -1.2451   13.9220   17.6477 C   0  0  0  0  0  0  0  0  0  0  0  0
   -0.5143   13.6030   18.7882 C   0  0  0  0  0  0  0  0  0  0  0  0
    0.2163   14.5935   19.4492 C   0  0  0  0  0  0  0  0  0  0  0  0
    0.2192   15.9235   18.9888 C   0  0  0  0  0  0  0  0  0  0  0  0
   -0.5644   17.5878   17.2705 C   0  0  0  0  0  0  0  0  0  0  0  0
    0.3284   18.0567   16.5829 O   0  0  0  0  0  0  0  0  0  0  0  0
   -2.3524   18.9185   16.5860 C   0  0  0  0  0  0  0  0  0  0  0  0
   -1.7242   18.1785   17.6341 O   0  0  0  0  0  0  0  0  0  0  0  0
    3.1225   17.1547   20.9806 C   0  0  0  0  0  0  0  0  0  0  0  0
    3.4372   17.1427   22.2503 N   0  0  0  0  0  0  0  0  0  0  0  0
    4.3846   18.1068   22.5508 N   0  0  0  0  0  0  0  0  0  0  0  0
    4.7301   18.8268   21.4978 C   0  0  0  0  0  0  0  0  0  0  0  0
    3.9217   18.3391   20.0500 S   0  0  0  0  0  0  0  0  0  0  0  0
    5.7124   19.9199   21.4891 C   0  0  0  0  0  0  0  0  0  0  0  0
    6.7769   19.9942   22.3872 C   0  0  0  0  0  0  0  0  0  0  0  0
    7.6619   21.0676   22.2980 C   0  0  0  0  0  0  0  0  0  0  0  0
    7.4663   22.0329   21.3186 C   0  0  0  0  0  0  0  0  0  0  0  0
    6.3895   21.8849   20.4627 C   0  0  0  0  0  0  0  0  0  0  0  0
    5.5152   20.8582   20.5281 N   0  0  0  0  0  0  0  0  0  0  0  0
 13 14  1  0  0  0
 14 11  1  0  0  0
 11 12  2  0  0  0
 11  5  1  0  0  0
  5  6  2  0  0  0
  6  7  1  0  0  0
  7  8  2  0  0  0
  8  9  1  0  0  0
  9 10  2  0  0  0
 10  1  1  0  0  0
  1  2  2  0  0  0
  1  3  1  0  0  0
  3 15  1  0  0  0
 15 16  2  0  0  0
 16 17  1  0  0  0
 17 18  2  0  0  0
 18 20  1  0  0  0
 20 21  2  0  0  0
 21 22  1  0  0  0
 22 23  2  0  0  0
 23 24  1  0  0  0
 24 25  2  0  0  0
 18 19  1  0  0  0
 10  5  1  0  0  0
 19 15  1  0  0  0
 25 20  1  0  0  0
  3  4  1  0  0  0
M  END
> <minimizedAffinity>
-7.42439

$$$$
OCNT-2313963


 26 27  0  0  0  0  0  0  0  0999 V2000
    2.9003   17.2528   21.8041 N   0  0  0  0  0  0  0  0  0  0  0  0
    4.2633   17.3832   21.5915 C   0  0  0  0  0  0  0  0  0  0  0  0
    4.9178   16.8456   20.6986 O   0  0  0  0  0  0  0  0  0  0  0  0
    2.4943   17.8117   22.5505 H   0  0  0  0  0  0  0  0  0  0  0  0
    2.4024   14.2611   22.1991 C   0  0  0  0  0  0  0  0  0  0  0  0
    1.7914   15.1846   21.1985 C   0  0  0  0  0  0  0  0  0  0  0  0
    2.0201   16.5342   21.0018 C   0  0  0  0  0  0  0  0  0  0  0  0
    1.2431   17.0323   19.9104 C   0  0  0  0  0  0  0  0  0  0  0  0
    0.4269   16.0783   19.3304 C   0  0  0  0  0  0  0  0  0  0  0  0
    0.6282   14.5670   20.1049 S   0  0  0  0  0  0  0  0  0  0  0  0
   -0.5171   16.1899   18.2311 C   0  0  0  0  0  0  0  0  0  0  0  0
   -1.1018   17.4119   18.0552 N   0  0  0  0  0  0  0  0  0  0  0  0
   -0.8313   15.2849   17.4614 O   0  0  0  0  0  0  0  0  0  0  0  0
   -1.7766   17.4953   17.3071 H   0  0  0  0  0  0  0  0  0  0  0  0
   -0.9218   18.2108   18.6382 H   0  0  0  0  0  0  0  0  0  0  0  0
    4.9279   18.3038   22.6020 C   0  0  0  0  0  0  0  0  0  0  0  0
    5.5645   19.5003   21.9317 C   0  0  0  0  0  0  0  0  0  0  0  0
    6.9107   19.7947   22.2024 C   0  0  0  0  0  0  0  0  0  0  0  0
    7.5478   20.8499   21.5514 C   0  0  0  0  0  0  0  0  0  0  0  0
    6.8540   21.6098   20.6145 C   0  0  0  0  0  0  0  0  0  0  0  0
    5.5144   21.3254   20.3331 C   0  0  0  0  0  0  0  0  0  0  0  0
    4.8591   20.2867   21.0015 C   0  0  0  0  0  0  0  0  0  0  0  0
    3.5536   19.9302   20.7640 O   0  0  0  0  0  0  0  0  0  0  0  0
    3.0156   20.2413   19.4665 C   0  0  0  0  0  0  0  0  0  0  0  0
    3.3202   19.0443   18.5623 C   0  0  0  0  0  0  0  0  0  0  0  0
    1.4986   20.4568   19.5262 C   0  0  0  0  0  0  0  0  0  0  0  0
  5  6  1  0  0  0
  6  7  2  0  0  0
  7  1  1  0  0  0
  1  2  1  0  0  0
  2  3  2  0  0  0
  2 16  1  0  0  0
 16 17  1  0  0  0
 17 18  2  0  0  0
 18 19  1  0  0  0
 19 20  2  0  0  0
 20 21  1  0  0  0
 21 22  2  0  0  0
 22 23  1  0  0  0
 23 24  1  0  0  0
 24 25  1  0  0  0
 24 26  1  0  0  0
  7  8  1  0  0  0
  8  9  2  0  0  0
  9 11  1  0  0  0
 11 12  1  0  0  0
 11 13  2  0  0  0
  9 10  1  0  0  0
 10  6  1  0  0  0
 22 17  1  0  0  0
  1  4  1  0  0  0
 12 14  1  0  0  0
 12 15  1  0  0  0
M  END
> <minimizedAffinity>
-8.40934

$$$$
OCNT-2313985


 28 31  0  0  0  0  0  0  0  0999 V2000
    3.9247   18.4938   19.9438 O   0  0  0  0  0  0  0  0  0  0  0  0
    4.1231   18.1314   21.0948 C   0  0  0  0  0  0  0  0  0  0  0  0
    3.5031   17.0910   21.7523 N   0  0  0  0  0  0  0  0  0  0  0  0
    5.0552   18.7313   21.9228 N   0  0  0  0  0  0  0  0  0  0  0  0
    3.9588   16.7999   22.6039 H   0  0  0  0  0  0  0  0  0  0  0  0
    4.7337   18.8013   22.8795 H   0  0  0  0  0  0  0  0  0  0  0  0
    5.7987   19.9184   21.4840 C   0  0  0  0  0  0  0  0  0  0  0  0
    7.2012   20.0117   22.1116 C   0  0  0  0  0  0  0  0  0  0  0  0
    7.4234   21.4991   22.3544 C   0  0  0  0  0  0  0  0  0  0  0  0
    6.0564   21.9833   22.8143 C   0  0  0  0  0  0  0  0  0  0  0  0
    5.0640   21.2045   21.9522 C   0  0  0  0  0  0  0  0  0  0  0  0
    4.6721   21.9276   20.6642 C   0  0  0  0  0  0  0  0  0  0  0  0
    4.6012   20.8554   19.6732 N   0  0  0  0  0  0  0  0  0  0  0  0
    5.8020   20.0485   19.9456 C   0  0  0  0  0  0  0  0  0  0  0  0
    4.6412   21.2363   18.7272 H   0  0  0  0  0  0  0  0  0  0  0  0
    2.4544   16.2763   21.2780 C   0  0  0  0  0  0  0  0  0  0  0  0
    2.1637   15.0187   21.7898 C   0  0  0  0  0  0  0  0  0  0  0  0
    1.1122   14.2960   21.2465 C   0  0  0  0  0  0  0  0  0  0  0  0
    0.8225   13.0836   21.7398 F   0  0  0  0  0  0  0  0  0  0  0  0
    0.3455   14.8008   20.1978 C   0  0  0  0  0  0  0  0  0  0  0  0
    0.6094   16.0586   19.6439 C   0  0  0  0  0  0  0  0  0  0  0  0
    1.6810   16.7756   20.2122 C   0  0  0  0  0  0  0  0  0  0  0  0
   -0.1446   16.5693   18.6018 N   0  0  0  0  0  0  0  0  0  0  0  0
   -0.7557   15.6985   17.5810 C   0  0  0  0  0  0  0  0  0  0  0  0
   -0.8472   16.4412   16.2358 C   0  0  0  0  0  0  0  0  0  0  0  0
   -1.6115   17.6545   16.2850 O   0  0  0  0  0  0  0  0  0  0  0  0
   -1.5986   18.2820   17.5745 C   0  0  0  0  0  0  0  0  0  0  0  0
   -0.3195   18.0162   18.3862 C   0  0  0  0  0  0  0  0  0  0  0  0
  1  2  2  0  0  0
  2  3  1  0  0  0
  3 16  1  0  0  0
 16 17  1  0  0  0
 17 18  2  0  0  0
 18 19  1  0  0  0
 18 20  1  0  0  0
 20 21  2  0  0  0
 21 23  1  0  0  0
 23 24  1  0  0  0
 24 25  1  0  0  0
 25 26  1  0  0  0
 26 27  1  0  0  0
 27 28  1  0  0  0
 21 22  1  0  0  0
  2  4  1  0  0  0
  7  4  1  0  0  0
  7  8  1  0  0  0
  8  9  1  0  0  0
  9 10  1  0  0  0
 10 11  1  0  0  0
 11 12  1  0  0  0
 12 13  1  0  0  0
 13 14  1  0  0  0
 22 16  2  0  0  0
 11  7  1  0  0  0
 28 23  1  0  0  0
 14  7  1  0  0  0
  3  5  1  0  0  0
  4  6  1  0  0  0
 13 15  1  0  0  0
M  END
> <minimizedAffinity>
-8.44584

$$$$
OCNT-2313989


 26 28  0  0  0  0  0  0  0  0999 V2000
    4.1994   16.7593   21.7727 C   0  0  0  0  0  0  0  0  0  0  0  0
    2.9344   16.7133   21.0022 C   0  0  0  0  0  0  0  0  0  0  0  0
    2.4362   17.5924   20.0646 C   0  0  0  0  0  0  0  0  0  0  0  0
    1.2463   17.0370   19.6493 N   0  0  0  0  0  0  0  0  0  0  0  0
    1.0416   15.8734   20.3170 N   0  0  0  0  0  0  0  0  0  0  0  0
    2.0649   15.6671   21.1354 N   0  0  0  0  0  0  0  0  0  0  0  0
    0.3231   17.5216   18.6861 C   0  0  0  0  0  0  0  0  0  0  0  0
   -0.9725   16.9822   18.6350 C   0  0  0  0  0  0  0  0  0  0  0  0
   -1.8995   17.4465   17.6922 C   0  0  0  0  0  0  0  0  0  0  0  0
   -1.5421   18.4514   16.7928 C   0  0  0  0  0  0  0  0  0  0  0  0
   -0.2510   18.9857   16.8439 C   0  0  0  0  0  0  0  0  0  0  0  0
    0.6821   18.5294   17.7827 C   0  0  0  0  0  0  0  0  0  0  0  0
   -2.3462   18.9938   15.8281 O   0  0  0  0  0  0  0  0  0  0  0  0
   -3.6683   19.3470   16.2171 C   0  0  0  0  0  0  0  0  0  0  0  0
    5.0327   19.0458   22.1013 C   0  0  0  0  0  0  0  0  0  0  0  0
    4.3505   19.1634   23.1159 O   0  0  0  0  0  0  0  0  0  0  0  0
    4.9589   17.9073   21.3352 N   0  0  0  0  0  0  0  0  0  0  0  0
    5.6513   17.7586   20.6101 H   0  0  0  0  0  0  0  0  0  0  0  0
    5.5582   21.1802   20.9016 N   0  0  0  0  0  0  0  0  0  0  0  0
    6.5868   21.9819   20.5436 N   0  0  0  0  0  0  0  0  0  0  0  0
    7.6519   21.3899   21.0807 C   0  0  0  0  0  0  0  0  0  0  0  0
    7.3164   20.2064   21.7572 C   0  0  0  0  0  0  0  0  0  0  0  0
    8.4497   19.2118   22.5420 Cl  0  0  0  0  0  0  0  0  0  0  0  0
    5.9423   20.0676   21.6296 C   0  0  0  0  0  0  0  0  0  0  0  0
    3.6790   20.7117   19.3643 C   0  0  0  0  0  0  0  0  0  0  0  0
    4.2204   21.5779   20.4902 C   0  0  0  0  0  0  0  0  0  0  0  0
 25 26  1  0  0  0
 26 19  1  0  0  0
 19 20  1  0  0  0
 20 21  2  0  0  0
 21 22  1  0  0  0
 22 23  1  0  0  0
 22 24  2  0  0  0
 24 15  1  0  0  0
 15 16  2  0  0  0
 15 17  1  0  0  0
 17  1  1  0  0  0
  1  2  1  0  0  0
  2  3  2  0  0  0
  3  4  1  0  0  0
  4  7  1  0  0  0
  7  8  1  0  0  0
  8  9  2  0  0  0
  9 10  1  0  0  0
 10 13  1  0  0  0
 13 14  1  0  0  0
 10 11  2  0  0  0
 11 12  1  0  0  0
  4  5  1  0  0  0
  5  6  2  0  0  0
 24 19  1  0  0  0
  6  2  1  0  0  0
 12  7  2  0  0  0
 17 18  1  0  0  0
M  END
> <minimizedAffinity>
-5.90490

$$$$
OCNT-2313994


 23 25  0  0  0  0  0  0  0  0999 V2000
    1.8801   18.1313   20.0151 N   0  0  0  0  0  0  0  0  0  0  0  0
    3.3365   17.9676   20.1521 C   0  0  0  0  0  0  0  0  0  0  0  0
    3.9679   19.3102   20.5214 C   0  0  0  0  0  0  0  0  0  0  0  0
    3.6252   20.3940   19.4867 C   0  0  0  0  0  0  0  0  0  0  0  0
    2.0988   20.4734   19.3144 C   0  0  0  0  0  0  0  0  0  0  0  0
    1.5007   19.1063   18.9786 C   0  0  0  0  0  0  0  0  0  0  0  0
    0.7012   14.7260   20.5970 C   0  0  0  0  0  0  0  0  0  0  0  0
    1.3627   15.9114   20.8100 C   0  0  0  0  0  0  0  0  0  0  0  0
    1.2079   16.8960   19.8539 C   0  0  0  0  0  0  0  0  0  0  0  0
    0.4564   16.6753   18.7595 N   0  0  0  0  0  0  0  0  0  0  0  0
   -0.1629   15.4862   18.6452 C   0  0  0  0  0  0  0  0  0  0  0  0
   -0.9787   15.2504   17.4135 C   0  0  0  0  0  0  0  0  0  0  0  0
   -0.0713   14.4837   19.5299 N   0  0  0  0  0  0  0  0  0  0  0  0
    0.8647   13.7582   21.5701 O   0  0  0  0  0  0  0  0  0  0  0  0
   -0.5023   14.0901   23.5504 C   0  0  0  0  0  0  0  0  0  0  0  0
    0.8688   14.2441   22.9137 C   0  0  0  0  0  0  0  0  0  0  0  0
    4.2285   21.7427   19.9149 C   0  0  0  0  0  0  0  0  0  0  0  0
    5.4113   21.6039   20.8109 C   0  0  0  0  0  0  0  0  0  0  0  0
    5.5079   21.8445   22.1649 C   0  0  0  0  0  0  0  0  0  0  0  0
    6.8043   21.5568   22.4900 N   0  0  0  0  0  0  0  0  0  0  0  0
    7.4363   21.1598   21.3472 C   0  0  0  0  0  0  0  0  0  0  0  0
    6.6227   21.1775   20.3174 N   0  0  0  0  0  0  0  0  0  0  0  0
    7.2239   21.6208   23.4071 H   0  0  0  0  0  0  0  0  0  0  0  0
 15 16  1  0  0  0
 16 14  1  0  0  0
 14  7  1  0  0  0
  7  8  2  0  0  0
  8  9  1  0  0  0
  9  1  1  0  0  0
  1  2  1  0  0  0
  2  3  1  0  0  0
  3  4  1  0  0  0
  4 17  1  0  0  0
 17 18  1  0  0  0
 18 19  2  0  0  0
 19 20  1  0  0  0
 20 21  1  0  0  0
 21 22  2  0  0  0
  4  5  1  0  0  0
  5  6  1  0  0  0
  9 10  2  0  0  0
 10 11  1  0  0  0
 11 12  1  0  0  0
 11 13  2  0  0  0
 13  7  1  0  0  0
  6  1  1  0  0  0
 22 18  1  0  0  0
 20 23  1  0  0  0
M  END
> <minimizedAffinity>
-8.53477

$$$$
OCNT-2313999


 22 24  0  0  0  0  0  0  0  0999 V2000
    4.0866   16.2245   21.5687 C   0  0  0  0  0  0  0  0  0  0  0  0
    4.0979   17.7937   23.4407 O   0  0  0  0  0  0  0  0  0  0  0  0
    4.3754   17.5565   22.2692 C   0  0  0  0  0  0  0  0  0  0  0  0
    5.0013   18.4800   21.4434 N   0  0  0  0  0  0  0  0  0  0  0  0
    4.9979   18.3056   20.4469 H   0  0  0  0  0  0  0  0  0  0  0  0
    5.2663   19.8435   21.8926 C   0  0  0  0  0  0  0  0  0  0  0  0
    4.7484   20.8741   20.8713 C   0  0  0  0  0  0  0  0  0  0  0  0
    5.8390   21.3044   19.8964 C   0  0  0  0  0  0  0  0  0  0  0  0
    7.0191   21.9599   20.6171 C   0  0  0  0  0  0  0  0  0  0  0  0
    7.2207   21.4511   22.0455 C   0  0  0  0  0  0  0  0  0  0  0  0
    6.7657   20.0054   22.1957 C   0  0  0  0  0  0  0  0  0  0  0  0
    2.7795   15.7571   21.8606 O   0  0  0  0  0  0  0  0  0  0  0  0
    1.8380   15.8774   20.8769 C   0  0  0  0  0  0  0  0  0  0  0  0
    0.9373   14.8940   20.4747 C   0  0  0  0  0  0  0  0  0  0  0  0
    0.0209   15.1591   19.4521 C   0  0  0  0  0  0  0  0  0  0  0  0
   -0.0127   16.4107   18.8215 C   0  0  0  0  0  0  0  0  0  0  0  0
   -0.9953   16.6449   17.7005 C   0  0  0  0  0  0  0  0  0  0  0  0
   -1.1898   18.1233   17.3688 C   0  0  0  0  0  0  0  0  0  0  0  0
    0.1574   18.8249   17.2526 C   0  0  0  0  0  0  0  0  0  0  0  0
    0.9038   18.7717   18.5843 C   0  0  0  0  0  0  0  0  0  0  0  0
    0.9071   17.3986   19.2094 C   0  0  0  0  0  0  0  0  0  0  0  0
    1.8146   17.1228   20.2443 C   0  0  0  0  0  0  0  0  0  0  0  0
  2  3  2  0  0  0
  3  1  1  0  0  0
  1 12  1  0  0  0
 12 13  1  0  0  0
 13 14  1  0  0  0
 14 15  2  0  0  0
 15 16  1  0  0  0
 16 17  1  0  0  0
 17 18  1  0  0  0
 18 19  1  0  0  0
 19 20  1  0  0  0
 20 21  1  0  0  0
 21 22  1  0  0  0
  3  4  1  0  0  0
  4  6  1  0  0  0
  6  7  1  0  0  0
  7  8  1  0  0  0
  8  9  1  0  0  0
  9 10  1  0  0  0
 10 11  1  0  0  0
 22 13  2  0  0  0
 11  6  1  0  0  0
 21 16  2  0  0  0
  4  5  1  0  0  0
M  END
> <minimizedAffinity>
-10.98329

$$$$
OCNT-2314003


 22 24  0  0  0  0  0  0  0  0999 V2000
    3.6819   18.6223   18.9185 C   0  0  0  0  0  0  0  0  0  0  0  0
    2.8761   19.7932   19.2322 N   0  0  0  0  0  0  0  0  0  0  0  0
    1.4728   19.8267   19.1944 C   0  0  0  0  0  0  0  0  0  0  0  0
    0.8691   20.8758   19.4365 O   0  0  0  0  0  0  0  0  0  0  0  0
    0.6968   18.6059   18.8644 C   0  0  0  0  0  0  0  0  0  0  0  0
   -0.2421   18.5362   17.8941 N   0  0  0  0  0  0  0  0  0  0  0  0
   -0.6464   17.2523   17.9121 N   0  0  0  0  0  0  0  0  0  0  0  0
   -0.0150   16.4842   18.8396 C   0  0  0  0  0  0  0  0  0  0  0  0
   -0.2290   15.1740   19.0648 N   0  0  0  0  0  0  0  0  0  0  0  0
    0.5656   14.6814   20.0493 C   0  0  0  0  0  0  0  0  0  0  0  0
    1.5061   15.4103   20.7698 C   0  0  0  0  0  0  0  0  0  0  0  0
    2.5376   14.5763   22.1125 Br  0  0  0  0  0  0  0  0  0  0  0  0
    1.6820   16.7660   20.4933 C   0  0  0  0  0  0  0  0  0  0  0  0
    0.8805   17.3244   19.4810 C   0  0  0  0  0  0  0  0  0  0  0  0
   -1.3591   16.9472   17.2608 H   0  0  0  0  0  0  0  0  0  0  0  0
    3.5707   20.9289   19.8294 C   0  0  0  0  0  0  0  0  0  0  0  0
    4.7822   20.5063   20.6235 C   0  0  0  0  0  0  0  0  0  0  0  0
    4.7449   19.3815   21.4527 C   0  0  0  0  0  0  0  0  0  0  0  0
    5.8830   19.0472   22.1706 C   0  0  0  0  0  0  0  0  0  0  0  0
    7.0360   19.7467   22.1219 N   0  0  0  0  0  0  0  0  0  0  0  0
    7.0507   20.8328   21.3200 C   0  0  0  0  0  0  0  0  0  0  0  0
    5.9666   21.2472   20.5631 C   0  0  0  0  0  0  0  0  0  0  0  0
  1  2  1  0  0  0
  2 16  1  0  0  0
 16 17  1  0  0  0
 17 18  2  0  0  0
 18 19  1  0  0  0
 19 20  2  0  0  0
 20 21  1  0  0  0
 21 22  2  0  0  0
  2  3  1  0  0  0
  3  4  2  0  0  0
  3  5  1  0  0  0
  5  6  2  0  0  0
  6  7  1  0  0  0
  7  8  1  0  0  0
  8  9  1  0  0  0
  9 10  2  0  0  0
 10 11  1  0  0  0
 11 12  1  0  0  0
 11 13  2  0  0  0
 13 14  1  0  0  0
 22 17  1  0  0  0
 14  5  1  0  0  0
 14  8  2  0  0  0
  7 15  1  0  0  0
M  END
> <minimizedAffinity>
-9.26762

$$$$
OCNT-2314004


 37 43  0  0  0  0  0  0  0  0999 V2000
    1.3602   16.8016   20.9117 C   0  0  0  0  0  0  0  0  0  0  0  0
    0.1714   16.2573   20.2822 N   0  0  0  0  0  0  0  0  0  0  0  0
    0.0306   16.3846   18.9409 C   0  0  0  0  0  0  0  0  0  0  0  0
   -0.9714   15.6139   18.4559 N   0  0  0  0  0  0  0  0  0  0  0  0
    0.7092   17.1556   18.1562 N   0  0  0  0  0  0  0  0  0  0  0  0
    1.6731   17.9211   18.7305 C   0  0  0  0  0  0  0  0  0  0  0  0
    2.4135   18.8614   18.1770 N   0  0  0  0  0  0  0  0  0  0  0  0
    3.2014   19.3725   19.1791 C   0  0  0  0  0  0  0  0  0  0  0  0
    4.1372   20.4157   19.1330 C   0  0  0  0  0  0  0  0  0  0  0  0
    4.8285   20.7510   20.3031 C   0  0  0  0  0  0  0  0  0  0  0  0
    4.5734   20.0776   21.5034 C   0  0  0  0  0  0  0  0  0  0  0  0
    3.6259   19.0489   21.5722 C   0  0  0  0  0  0  0  0  0  0  0  0
    2.9681   18.7162   20.3833 C   0  0  0  0  0  0  0  0  0  0  0  0
    2.0173   17.7867   20.0566 N   0  0  0  0  0  0  0  0  0  0  0  0
    5.1434   20.4403   22.6967 O   0  0  0  0  0  0  0  0  0  0  0  0
    6.5623   20.2816   22.6886 C   0  0  0  0  0  0  0  0  0  0  0  0
    7.2609   21.4669   22.0409 C   0  0  0  0  0  0  0  0  0  0  0  0
    7.0224   21.4839   20.5387 C   0  0  0  0  0  0  0  0  0  0  0  0
    5.6738   21.8266   20.2175 O   0  0  0  0  0  0  0  0  0  0  0  0
   -0.2538   15.4612   20.7323 H   0  0  0  0  0  0  0  0  0  0  0  0
   -0.9387   14.6434   18.7364 H   0  0  0  0  0  0  0  0  0  0  0  0
   -1.0033   15.6845   17.4414 H   0  0  0  0  0  0  0  0  0  0  0  0
    5.5454   14.1159   21.6540 C   0  0  0  0  0  0  0  0  0  0  0  0
    4.1800   14.5820   21.6583 N   0  0  0  0  0  0  0  0  0  0  0  0
    3.6784   15.6573   20.9973 C   0  0  0  0  0  0  0  0  0  0  0  0
    2.3389   15.7516   21.3504 C   0  0  0  0  0  0  0  0  0  0  0  0
    2.1272   14.6211   22.1917 C   0  0  0  0  0  0  0  0  0  0  0  0
    3.2626   13.9358   22.3853 N   0  0  0  0  0  0  0  0  0  0  0  0
    0.8023   14.1004   22.8711 C   0  0  0  0  0  0  0  0  0  0  0  0
    0.0530   14.6839   23.8778 C   0  0  0  0  0  0  0  0  0  0  0  0
   -1.0449   13.8185   24.1430 C   0  0  0  0  0  0  0  0  0  0  0  0
   -2.1383   13.8217   25.0264 C   0  0  0  0  0  0  0  0  0  0  0  0
   -3.0396   12.7473   24.9820 C   0  0  0  0  0  0  0  0  0  0  0  0
   -2.8630   11.6940   24.0801 C   0  0  0  0  0  0  0  0  0  0  0  0
   -1.7823   11.6768   23.1924 C   0  0  0  0  0  0  0  0  0  0  0  0
   -0.9054   12.7563   23.2634 C   0  0  0  0  0  0  0  0  0  0  0  0
    0.1980   12.9279   22.4925 O   0  0  0  0  0  0  0  0  0  0  0  0
 23 24  1  0  0  0
 24 25  1  0  0  0
 25 26  2  0  0  0
 26  1  1  0  0  0
  1  2  1  0  0  0
  2  3  1  0  0  0
  3  4  1  0  0  0
  3  5  2  0  0  0
  5  6  1  0  0  0
  6  7  2  0  0  0
  7  8  1  0  0  0
  8  9  2  0  0  0
  9 10  1  0  0  0
 10 11  2  0  0  0
 11 12  1  0  0  0
 12 13  2  0  0  0
 13 14  1  0  0  0
 11 15  1  0  0  0
 15 16  1  0  0  0
 16 17  1  0  0  0
 17 18  1  0  0  0
 18 19  1  0  0  0
 26 27  1  0  0  0
 27 29  1  0  0  0
 29 30  2  0  0  0
 30 31  1  0  0  0
 31 32  2  0  0  0
 32 33  1  0  0  0
 33 34  2  0  0  0
 34 35  1  0  0  0
 35 36  2  0  0  0
 36 37  1  0  0  0
 27 28  2  0  0  0
 28 24  1  0  0  0
 14  1  1  0  0  0
 37 29  1  0  0  0
 14  6  1  0  0  0
 36 31  1  0  0  0
 13  8  1  0  0  0
 19 10  1  0  0  0
  2 20  1  0  0  0
  4 21  1  0  0  0
  4 22  1  0  0  0
M  END
> <minimizedAffinity>
3.02448

$$$$
OCNT-2314006


 24 27  0  0  0  0  0  0  0  0999 V2000
    0.3029   16.8464   18.5976 C   0  0  0  0  0  0  0  0  0  0  0  0
    1.4048   17.2566   19.1846 N   0  0  0  0  0  0  0  0  0  0  0  0
    1.3267   18.6284   19.0548 C   0  0  0  0  0  0  0  0  0  0  0  0
    0.2237   19.0500   18.4128 N   0  0  0  0  0  0  0  0  0  0  0  0
   -0.4543   17.8721   18.1105 O   0  0  0  0  0  0  0  0  0  0  0  0
   -2.2630   13.5712   15.8754 C   0  0  0  0  0  0  0  0  0  0  0  0
   -1.4437   13.9072   17.0851 C   0  0  0  0  0  0  0  0  0  0  0  0
   -0.9639   15.1995   17.2679 C   0  0  0  0  0  0  0  0  0  0  0  0
   -0.2007   15.4936   18.4034 C   0  0  0  0  0  0  0  0  0  0  0  0
    0.0518   14.4682   19.3172 C   0  0  0  0  0  0  0  0  0  0  0  0
   -0.4638   13.2107   19.0576 C   0  0  0  0  0  0  0  0  0  0  0  0
   -1.2010   12.9124   17.9680 N   0  0  0  0  0  0  0  0  0  0  0  0
    2.3596   19.5185   19.5729 C   0  0  0  0  0  0  0  0  0  0  0  0
    3.5152   19.0192   20.1769 C   0  0  0  0  0  0  0  0  0  0  0  0
    4.4971   19.8916   20.6707 C   0  0  0  0  0  0  0  0  0  0  0  0
    4.3677   21.2888   20.5965 C   0  0  0  0  0  0  0  0  0  0  0  0
    3.2111   21.7675   19.9643 C   0  0  0  0  0  0  0  0  0  0  0  0
    2.2207   20.9044   19.4682 C   0  0  0  0  0  0  0  0  0  0  0  0
    5.3723   22.1218   21.0886 N   0  0  0  0  0  0  0  0  0  0  0  0
    6.5182   22.4203   20.2113 C   0  0  0  0  0  0  0  0  0  0  0  0
    7.6399   21.4083   20.4547 C   0  0  0  0  0  0  0  0  0  0  0  0
    8.0425   21.3748   21.9286 C   0  0  0  0  0  0  0  0  0  0  0  0
    6.8283   21.1423   22.8272 C   0  0  0  0  0  0  0  0  0  0  0  0
    5.7113   22.1412   22.5188 C   0  0  0  0  0  0  0  0  0  0  0  0
  6  7  1  0  0  0
  7  8  2  0  0  0
  8  9  1  0  0  0
  9  1  1  0  0  0
  1  2  2  0  0  0
  2  3  1  0  0  0
  3 13  1  0  0  0
 13 14  1  0  0  0
 14 15  2  0  0  0
 15 16  1  0  0  0
 16 19  1  0  0  0
 19 20  1  0  0  0
 20 21  1  0  0  0
 21 22  1  0  0  0
 22 23  1  0  0  0
 23 24  1  0  0  0
 16 17  2  0  0  0
 17 18  1  0  0  0
  3  4  2  0  0  0
  4  5  1  0  0  0
  9 10  2  0  0  0
 10 11  1  0  0  0
 11 12  2  0  0  0
 12  7  1  0  0  0
  5  1  1  0  0  0
 18 13  2  0  0  0
 24 19  1  0  0  0
M  END
> <minimizedAffinity>
-0.39411

$$$$
OCNT-2314023


 25 28  0  0  0  0  0  0  0  0999 V2000
    0.7897   16.7716   19.4517 C   0  0  0  0  0  0  0  0  0  0  0  0
    1.4901   17.8492   18.6172 C   0  0  0  0  0  0  0  0  0  0  0  0
    2.5108   18.4174   19.5939 C   0  0  0  0  0  0  0  0  0  0  0  0
    2.8889   17.2871   20.4318 N   0  0  0  0  0  0  0  0  0  0  0  0
    3.7354   17.3193   21.5322 C   0  0  0  0  0  0  0  0  0  0  0  0
    3.7280   16.4156   22.3658 O   0  0  0  0  0  0  0  0  0  0  0  0
    1.9439   16.1868   20.2767 C   0  0  0  0  0  0  0  0  0  0  0  0
    4.6111   18.4685   21.6706 C   0  0  0  0  0  0  0  0  0  0  0  0
    4.6911   19.5612   20.8131 C   0  0  0  0  0  0  0  0  0  0  0  0
    5.6593   20.4214   21.3840 C   0  0  0  0  0  0  0  0  0  0  0  0
    6.0996   19.8791   22.5463 C   0  0  0  0  0  0  0  0  0  0  0  0
    7.0639   20.7368   23.1285 C   0  0  0  0  0  0  0  0  0  0  0  0
    7.1645   21.8005   22.2497 C   0  0  0  0  0  0  0  0  0  0  0  0
    6.3079   21.6127   21.1933 N   0  0  0  0  0  0  0  0  0  0  0  0
    6.0888   22.4810   20.0677 C   0  0  0  0  0  0  0  0  0  0  0  0
    5.4421   18.6994   22.7499 N   0  0  0  0  0  0  0  0  0  0  0  0
    5.5521   18.1266   23.5763 H   0  0  0  0  0  0  0  0  0  0  0  0
   -1.4806   13.9254   17.1003 C   0  0  0  0  0  0  0  0  0  0  0  0
   -1.3186   15.2392   16.6658 C   0  0  0  0  0  0  0  0  0  0  0  0
   -0.5829   16.1502   17.4339 C   0  0  0  0  0  0  0  0  0  0  0  0
    0.0034   15.7657   18.6483 C   0  0  0  0  0  0  0  0  0  0  0  0
   -0.1660   14.4426   19.0757 C   0  0  0  0  0  0  0  0  0  0  0  0
   -0.9002   13.5347   18.3074 C   0  0  0  0  0  0  0  0  0  0  0  0
   -3.4609   13.2768   15.9580 C   0  0  0  0  0  0  0  0  0  0  0  0
   -2.1703   12.9397   16.4505 O   0  0  0  0  0  0  0  0  0  0  0  0
 24 25  1  0  0  0
 25 18  1  0  0  0
 18 19  1  0  0  0
 19 20  2  0  0  0
 20 21  1  0  0  0
 21  1  1  0  0  0
  1  2  1  0  0  0
  2  3  1  0  0  0
  3  4  1  0  0  0
  4  5  1  0  0  0
  5  6  2  0  0  0
  5  8  1  0  0  0
  8  9  2  0  0  0
  9 10  1  0  0  0
 10 11  2  0  0  0
 11 12  1  0  0  0
 12 13  2  0  0  0
 13 14  1  0  0  0
 14 15  1  0  0  0
 11 16  1  0  0  0
  4  7  1  0  0  0
 21 22  2  0  0  0
 22 23  1  0  0  0
 23 18  2  0  0  0
  7  1  1  0  0  0
 16  8  1  0  0  0
 14 10  1  0  0  0
 16 17  1  0  0  0
M  END
> <minimizedAffinity>
-2.45692

$$$$
OCNT-2314024


 26 28  0  0  0  0  0  0  0  0999 V2000
    1.4669   19.5715   19.2715 C   0  0  0  0  0  0  0  0  0  0  0  0
    0.7010   20.5046   19.0316 O   0  0  0  0  0  0  0  0  0  0  0  0
    1.2396   18.2685   18.8502 N   0  0  0  0  0  0  0  0  0  0  0  0
    2.1861   17.1639   18.9875 C   0  0  0  0  0  0  0  0  0  0  0  0
    1.8584   16.2208   20.1166 C   0  0  0  0  0  0  0  0  0  0  0  0
    2.9331   15.7065   20.8721 C   0  0  0  0  0  0  0  0  0  0  0  0
    2.7175   14.8431   21.9472 C   0  0  0  0  0  0  0  0  0  0  0  0
    1.4226   14.4744   22.2875 C   0  0  0  0  0  0  0  0  0  0  0  0
    0.3503   14.9580   21.5411 C   0  0  0  0  0  0  0  0  0  0  0  0
    0.5581   15.8067   20.4459 C   0  0  0  0  0  0  0  0  0  0  0  0
   -0.6023   16.1768   19.8200 O   0  0  0  0  0  0  0  0  0  0  0  0
   -0.5000   16.5033   18.4356 C   0  0  0  0  0  0  0  0  0  0  0  0
   -0.0640   17.9634   18.2355 C   0  0  0  0  0  0  0  0  0  0  0  0
   -0.0415   18.3043   16.7434 C   0  0  0  0  0  0  0  0  0  0  0  0
    5.1925   20.2878   21.2494 C   0  0  0  0  0  0  0  0  0  0  0  0
    4.7015   19.0360   21.1579 C   0  0  0  0  0  0  0  0  0  0  0  0
    3.4296   18.8335   20.4769 C   0  0  0  0  0  0  0  0  0  0  0  0
    2.7363   19.8678   19.9664 C   0  0  0  0  0  0  0  0  0  0  0  0
    3.2943   21.2405   20.0578 C   0  0  0  0  0  0  0  0  0  0  0  0
    2.7383   22.2228   19.5863 O   0  0  0  0  0  0  0  0  0  0  0  0
    4.4951   21.3434   20.7201 N   0  0  0  0  0  0  0  0  0  0  0  0
    4.8838   22.2750   20.8057 H   0  0  0  0  0  0  0  0  0  0  0  0
    7.4737   21.6370   20.6738 C   0  0  0  0  0  0  0  0  0  0  0  0
    6.6660   20.7439   22.0255 S   0  0  0  0  0  0  0  0  0  0  0  0
    5.3633   17.8935   21.6981 C   0  0  0  0  0  0  0  0  0  0  0  0
    5.9257   16.9692   22.1175 N   0  0  0  0  0  0  0  0  0  0  0  0
 23 24  1  0  0  0
 24 15  1  0  0  0
 15 16  2  0  0  0
 16 25  1  0  0  0
 25 26  3  0  0  0
 16 17  1  0  0  0
 17 18  2  0  0  0
 18  1  1  0  0  0
  1  2  2  0  0  0
  1  3  1  0  0  0
  3  4  1  0  0  0
  4  5  1  0  0  0
  5  6  2  0  0  0
  6  7  1  0  0  0
  7  8  2  0  0  0
  8  9  1  0  0  0
  9 10  2  0  0  0
 10 11  1  0  0  0
 11 12  1  0  0  0
 12 13  1  0  0  0
 13 14  1  0  0  0
 18 19  1  0  0  0
 19 20  2  0  0  0
 19 21  1  0  0  0
 21 15  1  0  0  0
 13  3  1  0  0  0
 10  5  1  0  0  0
 21 22  1  0  0  0
M  END
> <minimizedAffinity>
-6.31958

$$$$
OCNT-2314028


 31 35  0  0  0  0  0  0  0  0999 V2000
    4.4198   14.7554   22.4691 O   0  0  0  0  0  0  0  0  0  0  0  0
    4.0410   15.8245   21.9976 C   0  0  0  0  0  0  0  0  0  0  0  0
    2.8488   15.9846   21.2938 N   0  0  0  0  0  0  0  0  0  0  0  0
    1.9119   14.8675   21.3465 C   0  0  0  0  0  0  0  0  0  0  0  0
    0.8552   14.9457   20.2884 C   0  0  0  0  0  0  0  0  0  0  0  0
    0.7231   15.9472   19.4019 C   0  0  0  0  0  0  0  0  0  0  0  0
    1.6593   17.1251   19.4365 C   0  0  0  0  0  0  0  0  0  0  0  0
    2.3346   17.2659   20.8016 C   0  0  0  0  0  0  0  0  0  0  0  0
   -0.2884   15.9973   18.3926 C   0  0  0  0  0  0  0  0  0  0  0  0
   -0.8085   14.8897   17.7579 C   0  0  0  0  0  0  0  0  0  0  0  0
   -1.7595   15.3176   16.8702 N   0  0  0  0  0  0  0  0  0  0  0  0
   -1.8619   16.6897   16.9059 C   0  0  0  0  0  0  0  0  0  0  0  0
   -2.6886   17.5503   16.1735 C   0  0  0  0  0  0  0  0  0  0  0  0
   -2.5669   18.9163   16.4222 C   0  0  0  0  0  0  0  0  0  0  0  0
   -3.3401   19.7714   15.7389 F   0  0  0  0  0  0  0  0  0  0  0  0
   -1.6660   19.4157   17.3525 C   0  0  0  0  0  0  0  0  0  0  0  0
   -0.8466   18.5420   18.0765 C   0  0  0  0  0  0  0  0  0  0  0  0
   -0.9457   17.1492   17.8574 C   0  0  0  0  0  0  0  0  0  0  0  0
   -2.3101   14.7164   16.2724 H   0  0  0  0  0  0  0  0  0  0  0  0
    4.9124   16.9869   22.2005 C   0  0  0  0  0  0  0  0  0  0  0  0
    6.2183   17.0141   21.7259 C   0  0  0  0  0  0  0  0  0  0  0  0
    6.9821   18.1596   21.9450 C   0  0  0  0  0  0  0  0  0  0  0  0
    6.4219   19.2511   22.6137 C   0  0  0  0  0  0  0  0  0  0  0  0
    5.1505   19.2251   23.0674 N   0  0  0  0  0  0  0  0  0  0  0  0
    4.4151   18.1084   22.8380 C   0  0  0  0  0  0  0  0  0  0  0  0
    7.2415   20.3679   22.8439 N   0  0  0  0  0  0  0  0  0  0  0  0
    8.1876   20.1521   22.5474 H   0  0  0  0  0  0  0  0  0  0  0  0
    6.7582   21.6020   22.2393 C   0  0  0  0  0  0  0  0  0  0  0  0
    6.2079   21.2723   20.8805 C   0  0  0  0  0  0  0  0  0  0  0  0
    4.7831   21.6171   20.5247 C   0  0  0  0  0  0  0  0  0  0  0  0
    5.9184   22.3670   19.8839 C   0  0  0  0  0  0  0  0  0  0  0  0
  1  2  2  0  0  0
  2 20  1  0  0  0
 20 21  2  0  0  0
 21 22  1  0  0  0
 22 23  2  0  0  0
 23 26  1  0  0  0
 26 28  1  0  0  0
 28 29  1  0  0  0
 29 30  1  0  0  0
 30 31  1  0  0  0
 23 24  1  0  0  0
 24 25  2  0  0  0
  2  3  1  0  0  0
  3  4  1  0  0  0
  4  5  1  0  0  0
  5  6  2  0  0  0
  6  9  1  0  0  0
  9 10  2  0  0  0
 10 11  1  0  0  0
 11 12  1  0  0  0
 12 13  2  0  0  0
 13 14  1  0  0  0
 14 15  1  0  0  0
 14 16  2  0  0  0
 16 17  1  0  0  0
 17 18  2  0  0  0
  6  7  1  0  0  0
  7  8  1  0  0  0
 25 20  1  0  0  0
  8  3  1  0  0  0
 31 29  1  0  0  0
 18  9  1  0  0  0
 18 12  1  0  0  0
 26 27  1  0  0  0
 11 19  1  0  0  0
M  END
> <minimizedAffinity>
-0.93359

$$$$
OCNT-2314032


 25 28  0  0  0  0  0  0  0  0999 V2000
    2.8977   15.7702   21.7692 C   0  0  0  0  0  0  0  0  0  0  0  0
    2.2020   14.7834   22.4379 C   0  0  0  0  0  0  0  0  0  0  0  0
    1.0673   14.4846   21.6442 C   0  0  0  0  0  0  0  0  0  0  0  0
    1.1518   15.2871   20.5256 C   0  0  0  0  0  0  0  0  0  0  0  0
    2.2566   16.0797   20.6046 O   0  0  0  0  0  0  0  0  0  0  0  0
    0.3120   15.4847   19.3540 C   0  0  0  0  0  0  0  0  0  0  0  0
   -0.1901   14.3421   18.7051 C   0  0  0  0  0  0  0  0  0  0  0  0
   -1.0116   14.4559   17.5842 C   0  0  0  0  0  0  0  0  0  0  0  0
   -1.3392   15.7164   17.0937 C   0  0  0  0  0  0  0  0  0  0  0  0
   -0.8426   16.8652   17.7187 C   0  0  0  0  0  0  0  0  0  0  0  0
   -1.2913   18.3888   17.0288 Cl  0  0  0  0  0  0  0  0  0  0  0  0
   -0.0131   16.7600   18.8486 C   0  0  0  0  0  0  0  0  0  0  0  0
    0.6435   18.1954   19.5808 Cl  0  0  0  0  0  0  0  0  0  0  0  0
    4.1653   16.5060   22.0482 C   0  0  0  0  0  0  0  0  0  0  0  0
    5.6629   22.3993   20.0103 O   0  0  0  0  0  0  0  0  0  0  0  0
    6.0473   21.4547   20.6754 C   0  0  0  0  0  0  0  0  0  0  0  0
    7.0874   21.5039   21.5930 N   0  0  0  0  0  0  0  0  0  0  0  0
    7.0233   20.3766   22.4891 C   0  0  0  0  0  0  0  0  0  0  0  0
    6.1148   19.3819   21.7677 C   0  0  0  0  0  0  0  0  0  0  0  0
    5.0461   18.7319   22.6652 C   0  0  0  0  0  0  0  0  0  0  0  0
    4.0087   17.9639   21.9379 N   0  0  0  0  0  0  0  0  0  0  0  0
    3.8753   18.3639   20.5148 C   0  0  0  0  0  0  0  0  0  0  0  0
    4.1748   19.8504   20.2561 C   0  0  0  0  0  0  0  0  0  0  0  0
    5.5096   20.1806   20.7173 N   0  0  0  0  0  0  0  0  0  0  0  0
    7.4420   22.4180   21.8417 H   0  0  0  0  0  0  0  0  0  0  0  0
 15 16  2  0  0  0
 16 17  1  0  0  0
 17 18  1  0  0  0
 18 19  1  0  0  0
 19 20  1  0  0  0
 20 21  1  0  0  0
 21 14  1  0  0  0
 14  1  1  0  0  0
  1  2  2  0  0  0
  2  3  1  0  0  0
  3  4  2  0  0  0
  4  6  1  0  0  0
  6  7  2  0  0  0
  7  8  1  0  0  0
  8  9  2  0  0  0
  9 10  1  0  0  0
 10 11  1  0  0  0
 10 12  2  0  0  0
 12 13  1  0  0  0
  4  5  1  0  0  0
 21 22  1  0  0  0
 22 23  1  0  0  0
 23 24  1  0  0  0
 24 16  1  0  0  0
 24 19  1  0  0  0
  5  1  1  0  0  0
 12  6  1  0  0  0
 17 25  1  0  0  0
M  END
> <minimizedAffinity>
-10.17950

$$$$
OCNT-2314045


 24 26  0  0  0  0  0  0  0  0999 V2000
    1.5164   18.2609   18.8686 N   0  0  0  0  0  0  0  0  0  0  0  0
    0.1799   17.9384   18.8823 C   0  0  0  0  0  0  0  0  0  0  0  0
   -0.6979   18.7671   19.0943 O   0  0  0  0  0  0  0  0  0  0  0  0
    2.1792   17.5820   18.5207 H   0  0  0  0  0  0  0  0  0  0  0  0
   -0.1001   16.5428   18.5993 C   0  0  0  0  0  0  0  0  0  0  0  0
   -0.8601   16.0778   17.5349 C   0  0  0  0  0  0  0  0  0  0  0  0
   -0.9300   14.7278   17.6714 N   0  0  0  0  0  0  0  0  0  0  0  0
   -1.6329   13.8006   16.8184 C   0  0  0  0  0  0  0  0  0  0  0  0
   -0.2634   14.2643   18.7323 N   0  0  0  0  0  0  0  0  0  0  0  0
    0.2566   15.3604   19.3105 C   0  0  0  0  0  0  0  0  0  0  0  0
    1.1621   15.1816   20.5887 C   0  0  0  0  0  0  0  0  0  0  0  0
    1.0431   14.2628   21.6144 C   0  0  0  0  0  0  0  0  0  0  0  0
    2.0934   14.5186   22.5327 C   0  0  0  0  0  0  0  0  0  0  0  0
    2.7905   15.5839   22.0224 C   0  0  0  0  0  0  0  0  0  0  0  0
    2.2363   15.9957   20.8569 O   0  0  0  0  0  0  0  0  0  0  0  0
    1.9623   19.6332   18.7900 C   0  0  0  0  0  0  0  0  0  0  0  0
    4.8179   20.7077   20.6226 N   0  0  0  0  0  0  0  0  0  0  0  0
    4.9728   19.3761   20.8842 C   0  0  0  0  0  0  0  0  0  0  0  0
    3.9378   18.7366   20.2466 C   0  0  0  0  0  0  0  0  0  0  0  0
    3.2023   19.7665   19.6171 C   0  0  0  0  0  0  0  0  0  0  0  0
    3.7404   20.9753   19.8567 N   0  0  0  0  0  0  0  0  0  0  0  0
    5.4963   22.0489   22.5811 C   0  0  0  0  0  0  0  0  0  0  0  0
    5.6635   21.8052   21.0820 C   0  0  0  0  0  0  0  0  0  0  0  0
    7.1286   21.5800   20.7116 C   0  0  0  0  0  0  0  0  0  0  0  0
 22 23  1  0  0  0
 23 24  1  0  0  0
 23 17  1  0  0  0
 17 18  1  0  0  0
 18 19  2  0  0  0
 19 20  1  0  0  0
 20 16  1  0  0  0
 16  1  1  0  0  0
  1  2  1  0  0  0
  2  3  2  0  0  0
  2  5  1  0  0  0
  5  6  2  0  0  0
  6  7  1  0  0  0
  7  8  1  0  0  0
  7  9  1  0  0  0
  9 10  2  0  0  0
 10 11  1  0  0  0
 11 12  2  0  0  0
 12 13  1  0  0  0
 13 14  2  0  0  0
 14 15  1  0  0  0
 20 21  2  0  0  0
 21 17  1  0  0  0
 10  5  1  0  0  0
 15 11  1  0  0  0
  1  4  1  0  0  0
M  END
> <minimizedAffinity>
-8.35351

$$$$
OCNT-2314050


 24 27  0  0  0  0  0  0  0  0999 V2000
    2.1103   18.1544   19.7106 C   0  0  0  0  0  0  0  0  0  0  0  0
    2.8711   19.2150   19.8989 N   0  0  0  0  0  0  0  0  0  0  0  0
    3.8911   18.7756   20.7157 C   0  0  0  0  0  0  0  0  0  0  0  0
    3.7849   17.4777   21.0383 N   0  0  0  0  0  0  0  0  0  0  0  0
    2.6553   17.1004   20.4057 N   0  0  0  0  0  0  0  0  0  0  0  0
   -1.4402   18.1581   17.3399 C   0  0  0  0  0  0  0  0  0  0  0  0
   -1.4889   17.8077   18.6913 C   0  0  0  0  0  0  0  0  0  0  0  0
   -0.3290   17.8081   19.4705 C   0  0  0  0  0  0  0  0  0  0  0  0
    0.9024   18.1395   18.8984 C   0  0  0  0  0  0  0  0  0  0  0  0
    0.9454   18.5200   17.5528 C   0  0  0  0  0  0  0  0  0  0  0  0
   -0.2181   18.5207   16.7738 C   0  0  0  0  0  0  0  0  0  0  0  0
   -3.1073   19.3229   16.1088 C   0  0  0  0  0  0  0  0  0  0  0  0
   -2.6446   18.1125   16.6947 O   0  0  0  0  0  0  0  0  0  0  0  0
    4.9646   19.6656   21.1623 C   0  0  0  0  0  0  0  0  0  0  0  0
    4.9712   21.0036   20.7801 C   0  0  0  0  0  0  0  0  0  0  0  0
    5.9384   21.8818   21.1600 N   0  0  0  0  0  0  0  0  0  0  0  0
    6.9066   21.3610   21.9454 C   0  0  0  0  0  0  0  0  0  0  0  0
    6.9119   20.0317   22.3331 C   0  0  0  0  0  0  0  0  0  0  0  0
    5.9509   19.1587   21.9551 N   0  0  0  0  0  0  0  0  0  0  0  0
    2.2310   15.7214   20.5405 C   0  0  0  0  0  0  0  0  0  0  0  0
    0.7203   15.5067   20.3754 C   0  0  0  0  0  0  0  0  0  0  0  0
    0.3975   14.3394   21.2967 C   0  0  0  0  0  0  0  0  0  0  0  0
    1.3220   14.5585   22.4823 C   0  0  0  0  0  0  0  0  0  0  0  0
    2.6304   15.0164   21.8477 C   0  0  0  0  0  0  0  0  0  0  0  0
 12 13  1  0  0  0
 13  6  1  0  0  0
  6  7  1  0  0  0
  7  8  2  0  0  0
  8  9  1  0  0  0
  9  1  1  0  0  0
  1  2  2  0  0  0
  2  3  1  0  0  0
  3 14  1  0  0  0
 14 15  2  0  0  0
 15 16  1  0  0  0
 16 17  2  0  0  0
 17 18  1  0  0  0
 18 19  2  0  0  0
  3  4  2  0  0  0
  4  5  1  0  0  0
  5 20  1  0  0  0
 20 21  1  0  0  0
 21 22  1  0  0  0
 22 23  1  0  0  0
 23 24  1  0  0  0
  9 10  2  0  0  0
 10 11  1  0  0  0
 11  6  2  0  0  0
  5  1  1  0  0  0
 24 20  1  0  0  0
 19 14  1  0  0  0
M  END
> <minimizedAffinity>
-8.92332

$$$$
OCNT-2314061


 26 28  0  0  0  0  0  0  0  0999 V2000
    3.7739   17.2361   21.7000 N   0  0  0  0  0  0  0  0  0  0  0  0
    3.5139   15.8599   21.7093 C   0  0  0  0  0  0  0  0  0  0  0  0
    4.2609   15.0128   22.1707 O   0  0  0  0  0  0  0  0  0  0  0  0
    3.0988   17.8458   21.2395 H   0  0  0  0  0  0  0  0  0  0  0  0
    2.2077   15.5186   21.0641 C   0  0  0  0  0  0  0  0  0  0  0  0
    1.5873   14.3123   21.3499 C   0  0  0  0  0  0  0  0  0  0  0  0
    0.3784   14.0430   20.7233 C   0  0  0  0  0  0  0  0  0  0  0  0
   -0.1583   14.9787   19.8385 C   0  0  0  0  0  0  0  0  0  0  0  0
    0.5258   16.1716   19.5941 C   0  0  0  0  0  0  0  0  0  0  0  0
    1.7044   16.4526   20.2047 N   0  0  0  0  0  0  0  0  0  0  0  0
    0.0259   17.2082   18.6714 C   0  0  0  0  0  0  0  0  0  0  0  0
    0.8284   18.3038   18.3209 C   0  0  0  0  0  0  0  0  0  0  0  0
    0.3319   19.2620   17.4511 C   0  0  0  0  0  0  0  0  0  0  0  0
   -0.8985   19.2091   16.9038 N   0  0  0  0  0  0  0  0  0  0  0  0
   -1.6614   18.1496   17.2360 C   0  0  0  0  0  0  0  0  0  0  0  0
   -1.2520   17.1432   18.0985 C   0  0  0  0  0  0  0  0  0  0  0  0
    5.0904   17.9922   22.3447 S   0  0  0  0  0  0  0  0  0  0  0  0
    4.7286   18.3142   23.7106 O   0  0  0  0  0  0  0  0  0  0  0  0
    6.2779   17.2183   22.0597 O   0  0  0  0  0  0  0  0  0  0  0  0
    5.3938   23.1520   19.1622 C   0  0  0  0  0  0  0  0  0  0  0  0
    5.2988   21.8934   19.9742 C   0  0  0  0  0  0  0  0  0  0  0  0
    4.2700   20.9727   19.7325 C   0  0  0  0  0  0  0  0  0  0  0  0
    4.1979   19.7844   20.4611 C   0  0  0  0  0  0  0  0  0  0  0  0
    5.1583   19.5159   21.4384 C   0  0  0  0  0  0  0  0  0  0  0  0
    6.2058   20.4112   21.6707 C   0  0  0  0  0  0  0  0  0  0  0  0
    6.2732   21.5971   20.9373 C   0  0  0  0  0  0  0  0  0  0  0  0
 20 21  1  0  0  0
 21 22  1  0  0  0
 22 23  2  0  0  0
 23 24  1  0  0  0
 24 17  1  0  0  0
 17 18  2  0  0  0
 17 19  2  0  0  0
 17  1  1  0  0  0
  1  2  1  0  0  0
  2  3  2  0  0  0
  2  5  1  0  0  0
  5  6  1  0  0  0
  6  7  2  0  0  0
  7  8  1  0  0  0
  8  9  2  0  0  0
  9 11  1  0  0  0
 11 12  2  0  0  0
 12 13  1  0  0  0
 13 14  2  0  0  0
 14 15  1  0  0  0
 15 16  2  0  0  0
  9 10  1  0  0  0
 24 25  2  0  0  0
 25 26  1  0  0  0
 26 21  2  0  0  0
 10  5  2  0  0  0
 16 11  1  0  0  0
  1  4  1  0  0  0
M  END
> <minimizedAffinity>
-9.94260

$$$$
OCNT-2314062


 29 32  0  0  0  0  0  0  0  0999 V2000
    2.0534   16.4611   20.4664 C   0  0  0  0  0  0  0  0  0  0  0  0
    2.8349   17.5136   20.3790 N   0  0  0  0  0  0  0  0  0  0  0  0
    3.6809   17.3567   21.4582 C   0  0  0  0  0  0  0  0  0  0  0  0
    3.4283   16.2563   22.1875 N   0  0  0  0  0  0  0  0  0  0  0  0
    2.3536   15.6625   21.5314 O   0  0  0  0  0  0  0  0  0  0  0  0
    4.7418   18.3131   21.7621 C   0  0  0  0  0  0  0  0  0  0  0  0
    5.5381   18.1655   22.9072 C   0  0  0  0  0  0  0  0  0  0  0  0
    6.5602   19.0725   23.2158 C   0  0  0  0  0  0  0  0  0  0  0  0
    6.7626   20.1402   22.3364 C   0  0  0  0  0  0  0  0  0  0  0  0
    7.6773   21.1686   22.3818 N   0  0  0  0  0  0  0  0  0  0  0  0
    7.5131   21.9956   21.3023 C   0  0  0  0  0  0  0  0  0  0  0  0
    6.4779   21.4978   20.5445 C   0  0  0  0  0  0  0  0  0  0  0  0
    5.9949   20.3249   21.1875 C   0  0  0  0  0  0  0  0  0  0  0  0
    4.9724   19.3993   20.8978 C   0  0  0  0  0  0  0  0  0  0  0  0
    8.3681   21.2896   23.1096 H   0  0  0  0  0  0  0  0  0  0  0  0
   -0.7887   16.5154   17.9760 C   0  0  0  0  0  0  0  0  0  0  0  0
   -1.2078   15.1836   18.0057 C   0  0  0  0  0  0  0  0  0  0  0  0
   -0.5464   14.2800   18.8331 C   0  0  0  0  0  0  0  0  0  0  0  0
    0.5199   14.7117   19.6283 C   0  0  0  0  0  0  0  0  0  0  0  0
    0.9402   16.0529   19.6169 C   0  0  0  0  0  0  0  0  0  0  0  0
    0.2688   16.9573   18.7819 C   0  0  0  0  0  0  0  0  0  0  0  0
   -1.6269   17.6862   16.9340 S   0  0  0  0  0  0  0  0  0  0  0  0
   -3.0341   17.6194   17.2565 O   0  0  0  0  0  0  0  0  0  0  0  0
   -1.1393   17.5140   15.5844 O   0  0  0  0  0  0  0  0  0  0  0  0
   -1.0683   19.1486   17.5063 N   0  0  0  0  0  0  0  0  0  0  0  0
   -1.5072   19.4855   18.3596 H   0  0  0  0  0  0  0  0  0  0  0  0
    0.2910   19.5603   17.2049 C   0  0  0  0  0  0  0  0  0  0  0  0
    1.4707   20.3759   19.4560 C   0  0  0  0  0  0  0  0  0  0  0  0
    0.9402   20.0069   18.4432 C   0  0  0  0  0  0  0  0  0  0  0  0
 28 29  3  0  0  0
 29 27  1  0  0  0
 27 25  1  0  0  0
 25 22  1  0  0  0
 22 23  2  0  0  0
 22 24  2  0  0  0
 22 16  1  0  0  0
 16 17  2  0  0  0
 17 18  1  0  0  0
 18 19  2  0  0  0
 19 20  1  0  0  0
 20  1  1  0  0  0
  1  2  2  0  0  0
  2  3  1  0  0  0
  3  6  1  0  0  0
  6  7  2  0  0  0
  7  8  1  0  0  0
  8  9  2  0  0  0
  9 10  1  0  0  0
 10 11  1  0  0  0
 11 12  2  0  0  0
 12 13  1  0  0  0
 13 14  2  0  0  0
  3  4  2  0  0  0
  4  5  1  0  0  0
 20 21  2  0  0  0
 21 16  1  0  0  0
  5  1  1  0  0  0
 14  6  1  0  0  0
 13  9  1  0  0  0
 25 26  1  0  0  0
 10 15  1  0  0  0
M  END
> <minimizedAffinity>
-6.19132

$$$$
OCNT-2314068


 26 29  0  0  0  0  0  0  0  0999 V2000
    4.9547   20.6818   20.9384 N   0  0  0  0  0  0  0  0  0  0  0  0
    3.9150   21.0614   20.0985 C   0  0  0  0  0  0  0  0  0  0  0  0
    3.6705   22.2068   19.7245 O   0  0  0  0  0  0  0  0  0  0  0  0
    2.9693   19.9528   19.5988 C   0  0  0  0  0  0  0  0  0  0  0  0
    3.1351   18.7132   19.9411 N   0  0  0  0  0  0  0  0  0  0  0  0
    4.2096   18.3695   20.7704 C   0  0  0  0  0  0  0  0  0  0  0  0
    4.3519   17.0145   21.0912 C   0  0  0  0  0  0  0  0  0  0  0  0
    5.3991   16.5771   21.8983 C   0  0  0  0  0  0  0  0  0  0  0  0
    6.3171   17.4979   22.3901 C   0  0  0  0  0  0  0  0  0  0  0  0
    6.1856   18.8549   22.0792 C   0  0  0  0  0  0  0  0  0  0  0  0
    5.1310   19.3080   21.2713 C   0  0  0  0  0  0  0  0  0  0  0  0
    7.1451   21.7732   20.5869 C   0  0  0  0  0  0  0  0  0  0  0  0
    5.8661   21.7159   21.4095 C   0  0  0  0  0  0  0  0  0  0  0  0
    1.9416   20.3566   18.7604 N   0  0  0  0  0  0  0  0  0  0  0  0
    2.0463   21.3340   18.4861 H   0  0  0  0  0  0  0  0  0  0  0  0
    0.5596   19.9640   18.9910 C   0  0  0  0  0  0  0  0  0  0  0  0
   -0.0181   18.8220   18.2253 C   0  0  0  0  0  0  0  0  0  0  0  0
   -0.5993   18.9180   17.0408 N   0  0  0  0  0  0  0  0  0  0  0  0
   -0.9876   17.6625   16.6418 N   0  0  0  0  0  0  0  0  0  0  0  0
   -0.6288   16.8172   17.5813 C   0  0  0  0  0  0  0  0  0  0  0  0
   -0.7627   15.4083   17.7018 C   0  0  0  0  0  0  0  0  0  0  0  0
   -0.2580   14.7809   18.7818 C   0  0  0  0  0  0  0  0  0  0  0  0
    0.4292   15.5138   19.8439 C   0  0  0  0  0  0  0  0  0  0  0  0
    0.9580   14.7336   21.0060 C   0  0  0  0  0  0  0  0  0  0  0  0
    0.5454   16.8513   19.7261 C   0  0  0  0  0  0  0  0  0  0  0  0
    0.0117   17.4972   18.6091 N   0  0  0  0  0  0  0  0  0  0  0  0
 12 13  1  0  0  0
 13  1  1  0  0  0
  1  2  1  0  0  0
  2  3  2  0  0  0
  2  4  1  0  0  0
  4 14  1  0  0  0
 14 16  1  0  0  0
 16 17  1  0  0  0
 17 18  2  0  0  0
 18 19  1  0  0  0
 19 20  2  0  0  0
 20 21  1  0  0  0
 21 22  2  0  0  0
 22 23  1  0  0  0
 23 24  1  0  0  0
 23 25  2  0  0  0
 25 26  1  0  0  0
  4  5  2  0  0  0
  5  6  1  0  0  0
  6  7  2  0  0  0
  7  8  1  0  0  0
  8  9  2  0  0  0
  9 10  1  0  0  0
 10 11  2  0  0  0
 11  1  1  0  0  0
 26 17  1  0  0  0
 11  6  1  0  0  0
 26 20  1  0  0  0
 14 15  1  0  0  0
M  END
> <minimizedAffinity>
-10.98503

$$$$
OCNT-2314070


 30 33  0  0  0  0  0  0  0  0999 V2000
    2.6668   15.3521   21.8300 C   0  0  0  0  0  0  0  0  0  0  0  0
    3.7387   14.7684   21.7408 O   0  0  0  0  0  0  0  0  0  0  0  0
    2.4796   16.7212   21.7444 N   0  0  0  0  0  0  0  0  0  0  0  0
    1.5468   17.0617   21.9387 H   0  0  0  0  0  0  0  0  0  0  0  0
    0.3251   14.5181   21.2218 C   0  0  0  0  0  0  0  0  0  0  0  0
    1.4254   14.6307   22.0492 C   0  0  0  0  0  0  0  0  0  0  0  0
    1.0490   13.8905   23.2014 C   0  0  0  0  0  0  0  0  0  0  0  0
   -0.1631   13.3422   23.1043 N   0  0  0  0  0  0  0  0  0  0  0  0
   -0.5903   13.7645   21.9010 N   0  0  0  0  0  0  0  0  0  0  0  0
   -1.5128   13.4989   21.5702 H   0  0  0  0  0  0  0  0  0  0  0  0
    0.0267   17.7215   17.5622 C   0  0  0  0  0  0  0  0  0  0  0  0
   -0.1028   16.4455   18.2226 N   0  0  0  0  0  0  0  0  0  0  0  0
   -0.5680   15.2861   17.6811 C   0  0  0  0  0  0  0  0  0  0  0  0
   -0.4969   14.3471   18.6846 C   0  0  0  0  0  0  0  0  0  0  0  0
    0.0257   15.0370   19.7950 C   0  0  0  0  0  0  0  0  0  0  0  0
    0.2543   16.3277   19.5147 N   0  0  0  0  0  0  0  0  0  0  0  0
    3.4538   17.7099   21.4974 C   0  0  0  0  0  0  0  0  0  0  0  0
    4.5473   17.9574   22.3266 C   0  0  0  0  0  0  0  0  0  0  0  0
    5.4734   18.9599   22.0059 C   0  0  0  0  0  0  0  0  0  0  0  0
    5.3268   19.7312   20.8473 C   0  0  0  0  0  0  0  0  0  0  0  0
    4.2301   19.4774   20.0152 C   0  0  0  0  0  0  0  0  0  0  0  0
    3.3048   18.4770   20.3364 C   0  0  0  0  0  0  0  0  0  0  0  0
    6.2881   20.7845   20.5113 C   0  0  0  0  0  0  0  0  0  0  0  0
    7.6181   20.6938   20.6542 C   0  0  0  0  0  0  0  0  0  0  0  0
    8.1270   22.0132   20.2338 C   0  0  0  0  0  0  0  0  0  0  0  0
    9.3006   22.2963   20.0826 O   0  0  0  0  0  0  0  0  0  0  0  0
    7.0248   22.8269   20.0193 N   0  0  0  0  0  0  0  0  0  0  0  0
    5.8817   22.0195   20.0271 N   0  0  0  0  0  0  0  0  0  0  0  0
    7.1078   23.5829   19.3483 H   0  0  0  0  0  0  0  0  0  0  0  0
    5.0898   22.4082   20.5403 H   0  0  0  0  0  0  0  0  0  0  0  0
 11 12  1  0  0  0
 12 13  1  0  0  0
 13 14  2  0  0  0
 14 15  1  0  0  0
 15  5  1  0  0  0
  5  6  2  0  0  0
  6  1  1  0  0  0
  1  2  2  0  0  0
  1  3  1  0  0  0
  3 17  1  0  0  0
 17 18  1  0  0  0
 18 19  2  0  0  0
 19 20  1  0  0  0
 20 23  1  0  0  0
 23 24  2  0  0  0
 24 25  1  0  0  0
 25 26  2  0  0  0
 25 27  1  0  0  0
 27 28  1  0  0  0
 20 21  2  0  0  0
 21 22  1  0  0  0
  6  7  1  0  0  0
  7  8  2  0  0  0
  8  9  1  0  0  0
 15 16  2  0  0  0
 16 12  1  0  0  0
  9  5  1  0  0  0
 22 17  2  0  0  0
 28 23  1  0  0  0
  3  4  1  0  0  0
 27 29  1  0  0  0
 28 30  1  0  0  0
  9 10  1  0  0  0
M  END
> <minimizedAffinity>
-4.69348

$$$$
OCNT-2314083


 26 29  0  0  0  0  0  0  0  0999 V2000
    3.3478   17.7142   20.5553 C   0  0  0  0  0  0  0  0  0  0  0  0
    4.4452   17.6601   20.0159 O   0  0  0  0  0  0  0  0  0  0  0  0
    3.1448   17.6316   21.9116 N   0  0  0  0  0  0  0  0  0  0  0  0
    2.2060   17.6739   22.2909 H   0  0  0  0  0  0  0  0  0  0  0  0
   -0.7581   14.3722   18.2905 C   0  0  0  0  0  0  0  0  0  0  0  0
   -0.6956   15.8471   18.1479 C   0  0  0  0  0  0  0  0  0  0  0  0
   -1.6435   16.5023   17.4619 N   0  0  0  0  0  0  0  0  0  0  0  0
   -1.2593   17.7970   17.5392 N   0  0  0  0  0  0  0  0  0  0  0  0
   -2.0531   18.8099   16.8913 C   0  0  0  0  0  0  0  0  0  0  0  0
   -0.1090   17.9894   18.2544 C   0  0  0  0  0  0  0  0  0  0  0  0
    0.5131   19.1615   18.4962 N   0  0  0  0  0  0  0  0  0  0  0  0
    1.6527   19.0416   19.2295 C   0  0  0  0  0  0  0  0  0  0  0  0
    2.3940   20.3308   19.4533 C   0  0  0  0  0  0  0  0  0  0  0  0
    2.1278   17.8221   19.7327 C   0  0  0  0  0  0  0  0  0  0  0  0
    1.4542   16.6289   19.4383 C   0  0  0  0  0  0  0  0  0  0  0  0
    0.2873   16.7274   18.6711 C   0  0  0  0  0  0  0  0  0  0  0  0
    4.2399   17.5328   22.8645 C   0  0  0  0  0  0  0  0  0  0  0  0
    5.0658   18.8198   22.9685 C   0  0  0  0  0  0  0  0  0  0  0  0
    6.5137   18.6851   22.4698 C   0  0  0  0  0  0  0  0  0  0  0  0
    6.6556   19.9864   21.7786 C   0  0  0  0  0  0  0  0  0  0  0  0
    7.7858   20.5721   21.2361 C   0  0  0  0  0  0  0  0  0  0  0  0
    7.6424   21.7953   20.5756 C   0  0  0  0  0  0  0  0  0  0  0  0
    6.3810   22.4029   20.4603 C   0  0  0  0  0  0  0  0  0  0  0  0
    5.2492   21.7942   21.0063 C   0  0  0  0  0  0  0  0  0  0  0  0
    5.4157   20.5921   21.6626 C   0  0  0  0  0  0  0  0  0  0  0  0
    4.3929   19.8791   22.2276 O   0  0  0  0  0  0  0  0  0  0  0  0
  5  6  1  0  0  0
  6  7  2  0  0  0
  7  8  1  0  0  0
  8  9  1  0  0  0
  8 10  1  0  0  0
 10 11  1  0  0  0
 11 12  2  0  0  0
 12 13  1  0  0  0
 12 14  1  0  0  0
 14  1  1  0  0  0
  1  2  2  0  0  0
  1  3  1  0  0  0
  3 17  1  0  0  0
 17 18  1  0  0  0
 18 19  1  0  0  0
 19 20  1  0  0  0
 20 21  2  0  0  0
 21 22  1  0  0  0
 22 23  2  0  0  0
 23 24  1  0  0  0
 24 25  2  0  0  0
 25 26  1  0  0  0
 14 15  2  0  0  0
 15 16  1  0  0  0
 16  6  1  0  0  0
 16 10  2  0  0  0
 26 18  1  0  0  0
 25 20  1  0  0  0
  3  4  1  0  0  0
M  END
> <minimizedAffinity>
-8.24717

$$$$
OCNT-2314086


 22 24  0  0  0  0  0  0  0  0999 V2000
    0.1735   14.2987   20.2682 C   0  0  0  0  0  0  0  0  0  0  0  0
    0.9481   15.5288   20.2108 N   0  0  0  0  0  0  0  0  0  0  0  0
    2.0850   15.6290   21.0113 C   0  0  0  0  0  0  0  0  0  0  0  0
    2.4814   14.7129   21.7320 O   0  0  0  0  0  0  0  0  0  0  0  0
    2.8526   16.9109   20.9615 C   0  0  0  0  0  0  0  0  0  0  0  0
    2.4841   17.8919   20.1228 C   0  0  0  0  0  0  0  0  0  0  0  0
    1.3038   17.7552   19.2791 C   0  0  0  0  0  0  0  0  0  0  0  0
    0.9335   18.8017   18.4229 C   0  0  0  0  0  0  0  0  0  0  0  0
   -0.1972   18.6844   17.6171 C   0  0  0  0  0  0  0  0  0  0  0  0
   -0.9609   17.5229   17.6644 C   0  0  0  0  0  0  0  0  0  0  0  0
   -0.5954   16.4767   18.5166 C   0  0  0  0  0  0  0  0  0  0  0  0
    0.5407   16.5794   19.3338 C   0  0  0  0  0  0  0  0  0  0  0  0
    4.0634   17.0130   21.8454 C   0  0  0  0  0  0  0  0  0  0  0  0
    4.0663   18.3311   22.4803 N   0  0  0  0  0  0  0  0  0  0  0  0
    3.1938   18.8239   22.2951 H   0  0  0  0  0  0  0  0  0  0  0  0
    5.0457   19.1876   21.9796 C   0  0  0  0  0  0  0  0  0  0  0  0
    6.3713   19.1203   22.4009 C   0  0  0  0  0  0  0  0  0  0  0  0
    7.3020   20.0168   21.8757 C   0  0  0  0  0  0  0  0  0  0  0  0
    6.8785   20.9590   20.9506 C   0  0  0  0  0  0  0  0  0  0  0  0
    7.9818   22.0853   20.2756 Cl  0  0  0  0  0  0  0  0  0  0  0  0
    5.5406   20.9661   20.5928 C   0  0  0  0  0  0  0  0  0  0  0  0
    4.6188   20.1022   21.0879 N   0  0  0  0  0  0  0  0  0  0  0  0
  1  2  1  0  0  0
  2  3  1  0  0  0
  3  4  2  0  0  0
  3  5  1  0  0  0
  5 13  1  0  0  0
 13 14  1  0  0  0
 14 16  1  0  0  0
 16 17  2  0  0  0
 17 18  1  0  0  0
 18 19  2  0  0  0
 19 20  1  0  0  0
 19 21  1  0  0  0
 21 22  2  0  0  0
  5  6  2  0  0  0
  6  7  1  0  0  0
  7  8  2  0  0  0
  8  9  1  0  0  0
  9 10  2  0  0  0
 10 11  1  0  0  0
 11 12  2  0  0  0
 12  2  1  0  0  0
 22 16  1  0  0  0
 12  7  1  0  0  0
 14 15  1  0  0  0
M  END
> <minimizedAffinity>
-10.58863

$$$$
OCNT-2314087


 33 38  0  0  0  0  0  0  0  0999 V2000
    1.4432   15.5127   20.3939 C   0  0  0  0  0  0  0  0  0  0  0  0
    1.5793   14.6954   21.4517 N   0  0  0  0  0  0  0  0  0  0  0  0
    2.6807   15.2083   22.1309 O   0  0  0  0  0  0  0  0  0  0  0  0
    3.1087   16.2861   21.4171 C   0  0  0  0  0  0  0  0  0  0  0  0
    2.3929   16.5112   20.3415 N   0  0  0  0  0  0  0  0  0  0  0  0
   -1.0978   16.3676   17.7198 C   0  0  0  0  0  0  0  0  0  0  0  0
   -1.5981   15.0867   17.4432 C   0  0  0  0  0  0  0  0  0  0  0  0
   -1.1163   13.9640   18.1176 C   0  0  0  0  0  0  0  0  0  0  0  0
   -0.1219   14.1062   19.0832 C   0  0  0  0  0  0  0  0  0  0  0  0
    0.4006   15.3711   19.3827 C   0  0  0  0  0  0  0  0  0  0  0  0
   -0.0950   16.4943   18.6945 C   0  0  0  0  0  0  0  0  0  0  0  0
   -4.2957   19.6866   15.8218 C   0  0  0  0  0  0  0  0  0  0  0  0
   -3.0323   18.9951   16.1383 C   0  0  0  0  0  0  0  0  0  0  0  0
   -1.8198   19.3193   15.7524 N   0  0  0  0  0  0  0  0  0  0  0  0
   -0.9479   18.4001   16.2874 N   0  0  0  0  0  0  0  0  0  0  0  0
   -1.6362   17.5177   16.9896 C   0  0  0  0  0  0  0  0  0  0  0  0
   -2.9614   17.8701   16.9136 N   0  0  0  0  0  0  0  0  0  0  0  0
   -3.7372   17.3967   17.3473 H   0  0  0  0  0  0  0  0  0  0  0  0
    4.2955   16.9973   21.9302 C   0  0  0  0  0  0  0  0  0  0  0  0
    4.0341   17.7576   23.2181 C   0  0  0  0  0  0  0  0  0  0  0  0
    5.0536   18.8695   23.1663 C   0  0  0  0  0  0  0  0  0  0  0  0
    5.3856   19.4976   24.1580 O   0  0  0  0  0  0  0  0  0  0  0  0
    5.4531   19.0295   21.8309 N   0  0  0  0  0  0  0  0  0  0  0  0
    4.7693   18.0819   20.9802 C   0  0  0  0  0  0  0  0  0  0  0  0
    6.3084   20.0452   21.3172 C   0  0  0  0  0  0  0  0  0  0  0  0
    5.7642   21.2524   20.8163 C   0  0  0  0  0  0  0  0  0  0  0  0
    6.5732   22.2763   20.3061 C   0  0  0  0  0  0  0  0  0  0  0  0
    7.9392   22.0853   20.2877 C   0  0  0  0  0  0  0  0  0  0  0  0
    9.0043   23.0334   19.8381 C   0  0  0  0  0  0  0  0  0  0  0  0
   10.2032   22.0848   19.6908 C   0  0  0  0  0  0  0  0  0  0  0  0
    9.9923   20.9510   20.7038 C   0  0  0  0  0  0  0  0  0  0  0  0
    8.4976   20.9055   20.7781 C   0  0  0  0  0  0  0  0  0  0  0  0
    7.7026   19.8907   21.2951 C   0  0  0  0  0  0  0  0  0  0  0  0
 12 13  1  0  0  0
 13 14  2  0  0  0
 14 15  1  0  0  0
 15 16  2  0  0  0
 16  6  1  0  0  0
  6  7  2  0  0  0
  7  8  1  0  0  0
  8  9  2  0  0  0
  9 10  1  0  0  0
 10  1  1  0  0  0
  1  2  2  0  0  0
  2  3  1  0  0  0
  3  4  1  0  0  0
  4 19  1  0  0  0
 19 20  1  0  0  0
 20 21  1  0  0  0
 21 22  2  0  0  0
 21 23  1  0  0  0
 23 25  1  0  0  0
 25 26  1  0  0  0
 26 27  2  0  0  0
 27 28  1  0  0  0
 28 29  1  0  0  0
 29 30  1  0  0  0
 30 31  1  0  0  0
 31 32  1  0  0  0
 32 33  1  0  0  0
 23 24  1  0  0  0
  4  5  2  0  0  0
 10 11  2  0  0  0
 16 17  1  0  0  0
 17 13  1  0  0  0
 11  6  1  0  0  0
  5  1  1  0  0  0
 24 19  1  0  0  0
 33 25  2  0  0  0
 32 28  2  0  0  0
 17 18  1  0  0  0
M  END
> <minimizedAffinity>
6.63136

$$$$
OCNT-2314103


 26 28  0  0  0  0  0  0  0  0999 V2000
    5.6963   20.9711   21.0355 C   0  0  0  0  0  0  0  0  0  0  0  0
    4.8319   21.7621   20.2855 C   0  0  0  0  0  0  0  0  0  0  0  0
    3.7251   21.1836   19.6548 C   0  0  0  0  0  0  0  0  0  0  0  0
    3.4429   19.8170   19.7937 C   0  0  0  0  0  0  0  0  0  0  0  0
    4.3244   19.0161   20.5354 C   0  0  0  0  0  0  0  0  0  0  0  0
    5.4483   19.5998   21.1394 C   0  0  0  0  0  0  0  0  0  0  0  0
    2.2976   19.3556   19.1212 N   0  0  0  0  0  0  0  0  0  0  0  0
    1.0501   19.9435   19.0579 C   0  0  0  0  0  0  0  0  0  0  0  0
    0.7319   21.0515   19.4719 O   0  0  0  0  0  0  0  0  0  0  0  0
    2.3969   18.5804   18.4712 H   0  0  0  0  0  0  0  0  0  0  0  0
    0.0983   19.1083   18.2985 C   0  0  0  0  0  0  0  0  0  0  0  0
   -0.8715   18.3901   18.9086 N   0  0  0  0  0  0  0  0  0  0  0  0
   -1.5138   17.7843   17.8938 N   0  0  0  0  0  0  0  0  0  0  0  0
   -0.9894   18.0636   16.6683 C   0  0  0  0  0  0  0  0  0  0  0  0
    0.0602   18.9195   16.8927 C   0  0  0  0  0  0  0  0  0  0  0  0
   -2.3058   17.1877   18.1120 H   0  0  0  0  0  0  0  0  0  0  0  0
    7.5176   20.4403   22.4696 C   0  0  0  0  0  0  0  0  0  0  0  0
    6.8208   21.4001   21.6850 O   0  0  0  0  0  0  0  0  0  0  0  0
    4.2115   17.6492   20.4902 O   0  0  0  0  0  0  0  0  0  0  0  0
    3.6858   17.0813   21.6937 C   0  0  0  0  0  0  0  0  0  0  0  0
    2.6235   16.0735   21.3218 C   0  0  0  0  0  0  0  0  0  0  0  0
    1.6604   16.3855   20.3508 C   0  0  0  0  0  0  0  0  0  0  0  0
    0.6757   15.4582   20.0058 C   0  0  0  0  0  0  0  0  0  0  0  0
    0.6391   14.2139   20.6324 C   0  0  0  0  0  0  0  0  0  0  0  0
    1.5826   13.8981   21.6085 C   0  0  0  0  0  0  0  0  0  0  0  0
    2.5680   14.8244   21.9541 C   0  0  0  0  0  0  0  0  0  0  0  0
 17 18  1  0  0  0
 18  1  1  0  0  0
  1  2  1  0  0  0
  2  3  2  0  0  0
  3  4  1  0  0  0
  4  7  1  0  0  0
  7  8  1  0  0  0
  8  9  2  0  0  0
  8 11  1  0  0  0
 11 12  2  0  0  0
 12 13  1  0  0  0
 13 14  1  0  0  0
 14 15  2  0  0  0
  4  5  2  0  0  0
  5 19  1  0  0  0
 19 20  1  0  0  0
 20 21  1  0  0  0
 21 22  2  0  0  0
 22 23  1  0  0  0
 23 24  2  0  0  0
 24 25  1  0  0  0
 25 26  2  0  0  0
  5  6  1  0  0  0
  6  1  2  0  0  0
 15 11  1  0  0  0
 26 21  1  0  0  0
  7 10  1  0  0  0
 13 16  1  0  0  0
M  END
> <minimizedAffinity>
-10.39661

$$$$
