OCNT-2311030


 25 27  0  0  0  0  0  0  0  0999 V2000
    3.4724   17.4322   21.8337 N   0  0  0  0  0  0  0  0  0  0  0  0
    4.8458   17.3868   21.6614 C   0  0  0  0  0  0  0  0  0  0  0  0
    5.4596   16.7154   20.8369 O   0  0  0  0  0  0  0  0  0  0  0  0
    3.1230   18.0979   22.5174 H   0  0  0  0  0  0  0  0  0  0  0  0
   -1.4749   17.5132   16.4368 C   0  0  0  0  0  0  0  0  0  0  0  0
   -0.8544   16.8220   17.5515 N   0  0  0  0  0  0  0  0  0  0  0  0
   -0.7307   15.3732   17.4608 C   0  0  0  0  0  0  0  0  0  0  0  0
   -0.5969   14.7325   18.8372 C   0  0  0  0  0  0  0  0  0  0  0  0
    0.4958   15.4067   19.6165 C   0  0  0  0  0  0  0  0  0  0  0  0
    1.2006   14.7175   20.6082 C   0  0  0  0  0  0  0  0  0  0  0  0
    2.1933   15.3654   21.3524 C   0  0  0  0  0  0  0  0  0  0  0  0
    2.4906   16.7102   21.1252 C   0  0  0  0  0  0  0  0  0  0  0  0
    1.7744   17.4048   20.1435 C   0  0  0  0  0  0  0  0  0  0  0  0
    0.7801   16.7607   19.3932 C   0  0  0  0  0  0  0  0  0  0  0  0
    0.0214   17.5391   18.3693 C   0  0  0  0  0  0  0  0  0  0  0  0
    0.1874   18.7522   18.2853 O   0  0  0  0  0  0  0  0  0  0  0  0
    5.5900   18.2985   22.6238 C   0  0  0  0  0  0  0  0  0  0  0  0
    6.0111   19.5902   21.9759 C   0  0  0  0  0  0  0  0  0  0  0  0
    7.3207   20.0740   22.1086 C   0  0  0  0  0  0  0  0  0  0  0  0
    7.7025   21.2657   21.4825 C   0  0  0  0  0  0  0  0  0  0  0  0
    6.7830   21.9800   20.7131 C   0  0  0  0  0  0  0  0  0  0  0  0
    5.4877   21.4956   20.5703 C   0  0  0  0  0  0  0  0  0  0  0  0
    4.6086   22.1773   19.8236 F   0  0  0  0  0  0  0  0  0  0  0  0
    5.1061   20.3114   21.1915 C   0  0  0  0  0  0  0  0  0  0  0  0
    3.8580   19.8437   21.0309 F   0  0  0  0  0  0  0  0  0  0  0  0
  5  6  1  0  0  0
  6  7  1  0  0  0
  7  8  1  0  0  0
  8  9  1  0  0  0
  9 10  1  0  0  0
 10 11  2  0  0  0
 11 12  1  0  0  0
 12  1  1  0  0  0
  1  2  1  0  0  0
  2  3  2  0  0  0
  2 17  1  0  0  0
 17 18  1  0  0  0
 18 19  2  0  0  0
 19 20  1  0  0  0
 20 21  2  0  0  0
 21 22  1  0  0  0
 22 23  1  0  0  0
 22 24  2  0  0  0
 24 25  1  0  0  0
 12 13  2  0  0  0
 13 14  1  0  0  0
 14 15  1  0  0  0
 15 16  2  0  0  0
 15  6  1  0  0  0
 14  9  2  0  0  0
 24 18  1  0  0  0
  1  4  1  0  0  0
M  END
> <minimizedAffinity>
-11.25232

$$$$
OCNT-2311032


 27 30  0  0  0  0  0  0  0  0999 V2000
    3.9646   17.7107   21.7873 N   0  0  0  0  0  0  0  0  0  0  0  0
    4.1674   16.3294   22.2339 C   0  0  0  0  0  0  0  0  0  0  0  0
    2.8381   15.5847   22.2174 C   0  0  0  0  0  0  0  0  0  0  0  0
    2.2703   15.4941   20.7911 C   0  0  0  0  0  0  0  0  0  0  0  0
    2.7155   16.6888   19.9273 C   0  0  0  0  0  0  0  0  0  0  0  0
    2.9474   17.9470   20.7594 C   0  0  0  0  0  0  0  0  0  0  0  0
    6.2224   20.5621   21.3266 C   0  0  0  0  0  0  0  0  0  0  0  0
    5.0866   19.7769   21.2188 C   0  0  0  0  0  0  0  0  0  0  0  0
    5.0826   18.5412   21.8473 C   0  0  0  0  0  0  0  0  0  0  0  0
    6.1484   18.1450   22.5660 N   0  0  0  0  0  0  0  0  0  0  0  0
    7.2016   18.9730   22.6175 C   0  0  0  0  0  0  0  0  0  0  0  0
    7.3009   20.1696   22.0269 N   0  0  0  0  0  0  0  0  0  0  0  0
    4.9655   22.2749   20.0023 C   0  0  0  0  0  0  0  0  0  0  0  0
    6.2768   21.9243   20.6877 C   0  0  0  0  0  0  0  0  0  0  0  0
    0.7953   15.4488   20.8239 N   0  0  0  0  0  0  0  0  0  0  0  0
    0.4072   16.1873   21.4069 H   0  0  0  0  0  0  0  0  0  0  0  0
    0.1282   15.5428   19.5766 C   0  0  0  0  0  0  0  0  0  0  0  0
   -0.2588   14.4155   18.9601 N   0  0  0  0  0  0  0  0  0  0  0  0
   -0.8603   14.5580   17.7768 C   0  0  0  0  0  0  0  0  0  0  0  0
   -1.1061   15.7102   17.1459 N   0  0  0  0  0  0  0  0  0  0  0  0
   -0.7329   16.8390   17.7645 C   0  0  0  0  0  0  0  0  0  0  0  0
   -0.9763   18.0790   17.1547 C   0  0  0  0  0  0  0  0  0  0  0  0
   -1.6506   18.1324   15.8082 C   0  0  0  0  0  0  0  0  0  0  0  0
   -0.6085   19.2801   17.7842 C   0  0  0  0  0  0  0  0  0  0  0  0
    0.0030   19.2601   19.0295 C   0  0  0  0  0  0  0  0  0  0  0  0
    0.2544   18.0388   19.6448 C   0  0  0  0  0  0  0  0  0  0  0  0
   -0.1006   16.8179   19.0187 C   0  0  0  0  0  0  0  0  0  0  0  0
 13 14  1  0  0  0
 14  7  1  0  0  0
  7  8  1  0  0  0
  8  9  2  0  0  0
  9  1  1  0  0  0
  1  2  1  0  0  0
  2  3  1  0  0  0
  3  4  1  0  0  0
  4 15  1  0  0  0
 15 17  1  0  0  0
 17 18  1  0  0  0
 18 19  2  0  0  0
 19 20  1  0  0  0
 20 21  2  0  0  0
 21 22  1  0  0  0
 22 23  1  0  0  0
 22 24  2  0  0  0
 24 25  1  0  0  0
 25 26  2  0  0  0
 26 27  1  0  0  0
  4  5  1  0  0  0
  5  6  1  0  0  0
  9 10  1  0  0  0
 10 11  2  0  0  0
 11 12  1  0  0  0
 12  7  2  0  0  0
  6  1  1  0  0  0
 27 17  2  0  0  0
 27 21  1  0  0  0
 15 16  1  0  0  0
M  END
> <minimizedAffinity>
-6.13589

$$$$
OCNT-2311055


 26 28  0  0  0  0  0  0  0  0999 V2000
    3.3163   17.4568   20.5340 N   0  0  0  0  0  0  0  0  0  0  0  0
    3.3412   16.2772   21.2548 C   0  0  0  0  0  0  0  0  0  0  0  0
    4.3704   15.8732   21.7874 O   0  0  0  0  0  0  0  0  0  0  0  0
    2.5318   17.6008   19.9138 H   0  0  0  0  0  0  0  0  0  0  0  0
    5.2514   21.5532   20.7720 C   0  0  0  0  0  0  0  0  0  0  0  0
    4.9176   22.3809   19.9204 O   0  0  0  0  0  0  0  0  0  0  0  0
    5.1584   20.2032   20.5612 N   0  0  0  0  0  0  0  0  0  0  0  0
    4.9933   19.1206   21.5220 C   0  0  0  0  0  0  0  0  0  0  0  0
    4.5554   18.2466   20.3278 C   0  0  0  0  0  0  0  0  0  0  0  0
    4.3622   19.5498   19.5312 C   0  0  0  0  0  0  0  0  0  0  0  0
    4.7438   21.9812   23.2019 C   0  0  0  0  0  0  0  0  0  0  0  0
    5.8183   22.0061   22.1274 C   0  0  0  0  0  0  0  0  0  0  0  0
    6.8833   21.1478   22.5377 O   0  0  0  0  0  0  0  0  0  0  0  0
    6.7402   20.2999   22.0690 H   0  0  0  0  0  0  0  0  0  0  0  0
    2.0839   15.5635   21.3047 C   0  0  0  0  0  0  0  0  0  0  0  0
    1.2671   15.2202   20.2416 C   0  0  0  0  0  0  0  0  0  0  0  0
    0.1503   14.5179   20.7511 C   0  0  0  0  0  0  0  0  0  0  0  0
    0.2954   14.4195   22.1232 C   0  0  0  0  0  0  0  0  0  0  0  0
    1.4887   15.0374   22.4313 N   0  0  0  0  0  0  0  0  0  0  0  0
    1.8976   15.0410   23.3546 H   0  0  0  0  0  0  0  0  0  0  0  0
   -0.5483   13.7687   23.1277 C   0  0  0  0  0  0  0  0  0  0  0  0
   -0.9689   14.4761   24.2620 C   0  0  0  0  0  0  0  0  0  0  0  0
   -1.7787   13.8673   25.2243 C   0  0  0  0  0  0  0  0  0  0  0  0
   -2.1750   12.5414   25.0649 C   0  0  0  0  0  0  0  0  0  0  0  0
   -1.7594   11.8234   23.9458 C   0  0  0  0  0  0  0  0  0  0  0  0
   -0.9495   12.4328   22.9830 C   0  0  0  0  0  0  0  0  0  0  0  0
 11 12  1  0  0  0
 12 13  1  0  0  0
 12  5  1  0  0  0
  5  6  2  0  0  0
  5  7  1  0  0  0
  7  8  1  0  0  0
  8  9  1  0  0  0
  9  1  1  0  0  0
  1  2  1  0  0  0
  2  3  2  0  0  0
  2 15  1  0  0  0
 15 16  2  0  0  0
 16 17  1  0  0  0
 17 18  2  0  0  0
 18 21  1  0  0  0
 21 22  2  0  0  0
 22 23  1  0  0  0
 23 24  2  0  0  0
 24 25  1  0  0  0
 25 26  2  0  0  0
 18 19  1  0  0  0
  9 10  1  0  0  0
 10  7  1  0  0  0
 19 15  1  0  0  0
 26 21  1  0  0  0
 13 14  1  0  0  0
  1  4  1  0  0  0
 19 20  1  0  0  0
M  END
> <minimizedAffinity>
-7.00819

$$$$
OCNT-2311058


 23 25  0  0  0  0  0  0  0  0999 V2000
    3.5407   17.2169   22.0588 C   0  0  0  0  0  0  0  0  0  0  0  0
    4.2999   15.9204   21.7728 C   0  0  0  0  0  0  0  0  0  0  0  0
    5.6014   16.3567   21.1004 C   0  0  0  0  0  0  0  0  0  0  0  0
    5.7769   17.8380   21.4258 C   0  0  0  0  0  0  0  0  0  0  0  0
    4.6836   18.1757   22.4447 C   0  0  0  0  0  0  0  0  0  0  0  0
    1.5638   15.7715   20.6597 O   0  0  0  0  0  0  0  0  0  0  0  0
    1.7995   16.9267   20.3184 C   0  0  0  0  0  0  0  0  0  0  0  0
    2.7903   17.6855   20.8984 N   0  0  0  0  0  0  0  0  0  0  0  0
    2.8403   18.6793   20.6916 H   0  0  0  0  0  0  0  0  0  0  0  0
    0.9901   17.5554   19.2413 C   0  0  0  0  0  0  0  0  0  0  0  0
    1.2963   18.8688   18.8659 C   0  0  0  0  0  0  0  0  0  0  0  0
    0.5474   19.4643   17.8645 C   0  0  0  0  0  0  0  0  0  0  0  0
   -0.4686   18.8469   17.2239 N   0  0  0  0  0  0  0  0  0  0  0  0
   -0.7435   17.5771   17.6028 C   0  0  0  0  0  0  0  0  0  0  0  0
   -0.0514   16.9016   18.5922 C   0  0  0  0  0  0  0  0  0  0  0  0
   -0.4000   15.6419   18.8927 F   0  0  0  0  0  0  0  0  0  0  0  0
    4.3450   19.5541   22.3170 O   0  0  0  0  0  0  0  0  0  0  0  0
    5.2864   20.3476   21.7603 C   0  0  0  0  0  0  0  0  0  0  0  0
    6.6002   20.5358   22.1125 C   0  0  0  0  0  0  0  0  0  0  0  0
    7.0935   21.4490   21.2215 N   0  0  0  0  0  0  0  0  0  0  0  0
    6.1911   21.8578   20.3130 N   0  0  0  0  0  0  0  0  0  0  0  0
    5.0873   21.1811   20.6439 C   0  0  0  0  0  0  0  0  0  0  0  0
    8.0307   21.8354   21.1739 H   0  0  0  0  0  0  0  0  0  0  0  0
  6  7  2  0  0  0
  7  8  1  0  0  0
  8  1  1  0  0  0
  1  2  1  0  0  0
  2  3  1  0  0  0
  3  4  1  0  0  0
  4  5  1  0  0  0
  5 17  1  0  0  0
 17 18  1  0  0  0
 18 19  2  0  0  0
 19 20  1  0  0  0
 20 21  1  0  0  0
 21 22  2  0  0  0
  7 10  1  0  0  0
 10 11  2  0  0  0
 11 12  1  0  0  0
 12 13  2  0  0  0
 13 14  1  0  0  0
 14 15  2  0  0  0
 15 16  1  0  0  0
  5  1  1  0  0  0
 22 18  1  0  0  0
 15 10  1  0  0  0
  8  9  1  0  0  0
 20 23  1  0  0  0
M  END
> <minimizedAffinity>
-7.90339

$$$$
OCNT-2311061


 23 25  0  0  0  0  0  0  0  0999 V2000
   -1.5880   18.2654   16.8047 C   0  0  0  0  0  0  0  0  0  0  0  0
   -0.5415   18.3382   17.8748 C   0  0  0  0  0  0  0  0  0  0  0  0
    0.0989   19.5295   18.1409 C   0  0  0  0  0  0  0  0  0  0  0  0
    1.0511   19.5070   19.1367 C   0  0  0  0  0  0  0  0  0  0  0  0
    1.3489   18.4010   19.8312 N   0  0  0  0  0  0  0  0  0  0  0  0
    0.6892   17.2732   19.5050 C   0  0  0  0  0  0  0  0  0  0  0  0
   -0.2614   17.2046   18.5467 N   0  0  0  0  0  0  0  0  0  0  0  0
    1.0369   16.0251   20.2311 C   0  0  0  0  0  0  0  0  0  0  0  0
    0.2911   14.8524   20.0765 C   0  0  0  0  0  0  0  0  0  0  0  0
    0.6546   13.7055   20.7805 C   0  0  0  0  0  0  0  0  0  0  0  0
    1.7578   13.7455   21.6219 C   0  0  0  0  0  0  0  0  0  0  0  0
    2.4557   14.9350   21.7247 C   0  0  0  0  0  0  0  0  0  0  0  0
    2.1267   16.0610   21.0553 N   0  0  0  0  0  0  0  0  0  0  0  0
    1.8845   21.0276   19.5544 S   0  0  0  0  0  0  0  0  0  0  0  0
    3.5775   20.7022   18.9508 C   0  0  0  0  0  0  0  0  0  0  0  0
    4.5561   20.6137   20.0936 C   0  0  0  0  0  0  0  0  0  0  0  0
    4.7084   19.4979   20.8280 C   0  0  0  0  0  0  0  0  0  0  0  0
    5.6921   19.4385   21.9434 C   0  0  0  0  0  0  0  0  0  0  0  0
    5.7833   18.4060   22.6023 O   0  0  0  0  0  0  0  0  0  0  0  0
    6.4480   20.5901   22.1497 N   0  0  0  0  0  0  0  0  0  0  0  0
    7.4275   20.6170   23.2228 C   0  0  0  0  0  0  0  0  0  0  0  0
    6.2949   21.7183   21.3654 C   0  0  0  0  0  0  0  0  0  0  0  0
    5.4025   21.7573   20.3699 C   0  0  0  0  0  0  0  0  0  0  0  0
  1  2  1  0  0  0
  2  3  1  0  0  0
  3  4  2  0  0  0
  4 14  1  0  0  0
 14 15  1  0  0  0
 15 16  1  0  0  0
 16 17  2  0  0  0
 17 18  1  0  0  0
 18 19  2  0  0  0
 18 20  1  0  0  0
 20 21  1  0  0  0
 20 22  1  0  0  0
 22 23  2  0  0  0
  4  5  1  0  0  0
  5  6  2  0  0  0
  6  8  1  0  0  0
  8  9  2  0  0  0
  9 10  1  0  0  0
 10 11  2  0  0  0
 11 12  1  0  0  0
 12 13  2  0  0  0
  6  7  1  0  0  0
  7  2  2  0  0  0
 23 16  1  0  0  0
 13  8  1  0  0  0
M  END
> <minimizedAffinity>
-8.16712

$$$$
OCNT-2311071


 30 34  0  0  0  0  0  0  0  0999 V2000
    4.2020   21.3392   20.2711 C   0  0  0  0  0  0  0  0  0  0  0  0
    3.7851   22.4839   20.4198 O   0  0  0  0  0  0  0  0  0  0  0  0
    3.4324   20.2774   19.7877 N   0  0  0  0  0  0  0  0  0  0  0  0
    4.0259   19.1288   19.0960 C   0  0  0  0  0  0  0  0  0  0  0  0
    3.1505   17.8855   19.1849 C   0  0  0  0  0  0  0  0  0  0  0  0
    1.7138   18.1890   18.7440 C   0  0  0  0  0  0  0  0  0  0  0  0
    1.1481   19.3592   19.5555 C   0  0  0  0  0  0  0  0  0  0  0  0
    2.0471   20.5824   19.4383 C   0  0  0  0  0  0  0  0  0  0  0  0
    9.0120   22.5285   19.9160 C   0  0  0  0  0  0  0  0  0  0  0  0
    7.9237   21.6537   20.4721 C   0  0  0  0  0  0  0  0  0  0  0  0
    6.6018   21.9074   20.1190 C   0  0  0  0  0  0  0  0  0  0  0  0
    5.5981   21.0857   20.6370 C   0  0  0  0  0  0  0  0  0  0  0  0
    5.9477   20.0685   21.5333 C   0  0  0  0  0  0  0  0  0  0  0  0
    5.3280   19.0742   22.3329 C   0  0  0  0  0  0  0  0  0  0  0  0
    3.8859   18.7760   22.5041 C   0  0  0  0  0  0  0  0  0  0  0  0
    6.2368   18.3480   22.9989 N   0  0  0  0  0  0  0  0  0  0  0  0
    7.4697   18.8845   22.6615 O   0  0  0  0  0  0  0  0  0  0  0  0
    7.2999   19.9204   21.7945 C   0  0  0  0  0  0  0  0  0  0  0  0
    8.3133   20.6539   21.2954 N   0  0  0  0  0  0  0  0  0  0  0  0
    0.8655   17.0131   18.8349 N   0  0  0  0  0  0  0  0  0  0  0  0
   -0.1908   16.6836   17.9532 C   0  0  0  0  0  0  0  0  0  0  0  0
   -0.5804   17.3076   16.9805 O   0  0  0  0  0  0  0  0  0  0  0  0
   -0.7306   15.4731   18.4086 N   0  0  0  0  0  0  0  0  0  0  0  0
   -0.0316   15.0593   19.5343 C   0  0  0  0  0  0  0  0  0  0  0  0
   -0.2202   13.9311   20.2998 C   0  0  0  0  0  0  0  0  0  0  0  0
    0.6380   13.7589   21.3889 C   0  0  0  0  0  0  0  0  0  0  0  0
    1.6440   14.7054   21.6754 C   0  0  0  0  0  0  0  0  0  0  0  0
    1.8141   15.8456   20.8795 C   0  0  0  0  0  0  0  0  0  0  0  0
    0.9598   16.0029   19.8086 C   0  0  0  0  0  0  0  0  0  0  0  0
   -1.5013   15.0046   17.9618 H   0  0  0  0  0  0  0  0  0  0  0  0
  9 10  1  0  0  0
 10 11  2  0  0  0
 11 12  1  0  0  0
 12  1  1  0  0  0
  1  2  2  0  0  0
  1  3  1  0  0  0
  3  4  1  0  0  0
  4  5  1  0  0  0
  5  6  1  0  0  0
  6 20  1  0  0  0
 20 21  1  0  0  0
 21 22  2  0  0  0
 21 23  1  0  0  0
 23 24  1  0  0  0
 24 25  2  0  0  0
 25 26  1  0  0  0
 26 27  2  0  0  0
 27 28  1  0  0  0
 28 29  2  0  0  0
  6  7  1  0  0  0
  7  8  1  0  0  0
 12 13  2  0  0  0
 13 14  1  0  0  0
 14 15  1  0  0  0
 14 16  2  0  0  0
 16 17  1  0  0  0
 17 18  1  0  0  0
 18 19  2  0  0  0
 19 10  1  0  0  0
  8  3  1  0  0  0
 18 13  1  0  0  0
 29 20  1  0  0  0
 29 24  1  0  0  0
 23 30  1  0  0  0
M  END
> <minimizedAffinity>
-4.92874

$$$$
OCNT-2311083


 29 31  0  0  0  0  0  0  0  0999 V2000
   -0.6287   17.2796   19.2882 N   0  0  0  0  0  0  0  0  0  0  0  0
   -0.1307   16.0199   19.0294 C   0  0  0  0  0  0  0  0  0  0  0  0
   -0.3520   15.3995   17.9960 O   0  0  0  0  0  0  0  0  0  0  0  0
   -0.3013   17.7247   20.1422 H   0  0  0  0  0  0  0  0  0  0  0  0
    0.7299   15.4597   20.1210 C   0  0  0  0  0  0  0  0  0  0  0  0
    0.4303   14.2218   20.6686 C   0  0  0  0  0  0  0  0  0  0  0  0
    1.2582   13.7407   21.6733 C   0  0  0  0  0  0  0  0  0  0  0  0
    2.3473   14.5071   22.0892 C   0  0  0  0  0  0  0  0  0  0  0  0
    2.5851   15.7432   21.4874 C   0  0  0  0  0  0  0  0  0  0  0  0
    1.7856   16.2313   20.5061 N   0  0  0  0  0  0  0  0  0  0  0  0
    3.7012   16.6397   21.8448 C   0  0  0  0  0  0  0  0  0  0  0  0
    3.6720   17.7464   22.6818 C   0  0  0  0  0  0  0  0  0  0  0  0
    4.9348   18.3944   22.8059 C   0  0  0  0  0  0  0  0  0  0  0  0
    5.9038   17.7695   22.0576 C   0  0  0  0  0  0  0  0  0  0  0  0
    5.2885   16.4173   21.2169 S   0  0  0  0  0  0  0  0  0  0  0  0
   -1.3853   18.0288   18.3110 C   0  0  0  0  0  0  0  0  0  0  0  0
   -0.5270   19.0422   17.5517 C   0  0  0  0  0  0  0  0  0  0  0  0
    0.9831   20.6044   19.3151 O   0  0  0  0  0  0  0  0  0  0  0  0
    1.5087   19.6561   18.7517 C   0  0  0  0  0  0  0  0  0  0  0  0
    0.8895   18.8586   17.8199 N   0  0  0  0  0  0  0  0  0  0  0  0
    2.8017   19.2416   18.9591 N   0  0  0  0  0  0  0  0  0  0  0  0
    1.1989   17.8979   17.8665 H   0  0  0  0  0  0  0  0  0  0  0  0
    3.2247   18.8027   18.1544 H   0  0  0  0  0  0  0  0  0  0  0  0
    3.6906   19.9909   19.8366 C   0  0  0  0  0  0  0  0  0  0  0  0
    3.3214   21.4857   19.8588 C   0  0  0  0  0  0  0  0  0  0  0  0
    4.5043   22.4045   20.1749 C   0  0  0  0  0  0  0  0  0  0  0  0
    5.5389   21.7170   21.0543 C   0  0  0  0  0  0  0  0  0  0  0  0
    6.1192   20.4720   20.3815 C   0  0  0  0  0  0  0  0  0  0  0  0
    5.1472   19.7870   19.4184 C   0  0  0  0  0  0  0  0  0  0  0  0
 18 19  2  0  0  0
 19 20  1  0  0  0
 20 17  1  0  0  0
 17 16  1  0  0  0
 16  1  1  0  0  0
  1  2  1  0  0  0
  2  3  2  0  0  0
  2  5  1  0  0  0
  5  6  1  0  0  0
  6  7  2  0  0  0
  7  8  1  0  0  0
  8  9  2  0  0  0
  9 11  1  0  0  0
 11 12  2  0  0  0
 12 13  1  0  0  0
 13 14  2  0  0  0
 14 15  1  0  0  0
  9 10  1  0  0  0
 19 21  1  0  0  0
 21 24  1  0  0  0
 24 25  1  0  0  0
 25 26  1  0  0  0
 26 27  1  0  0  0
 27 28  1  0  0  0
 28 29  1  0  0  0
 10  5  2  0  0  0
 29 24  1  0  0  0
 15 11  1  0  0  0
 20 22  1  0  0  0
  1  4  1  0  0  0
 21 23  1  0  0  0
M  END
> <minimizedAffinity>
-8.70490

$$$$
OCNT-2311086


 28 31  0  0  0  0  0  0  0  0999 V2000
    3.2756   15.6226   21.5337 C   0  0  0  0  0  0  0  0  0  0  0  0
    2.8329   14.4549   22.4388 C   0  0  0  0  0  0  0  0  0  0  0  0
    1.3561   14.5601   22.7929 C   0  0  0  0  0  0  0  0  0  0  0  0
    0.4884   14.4621   21.5371 C   0  0  0  0  0  0  0  0  0  0  0  0
    1.0859   15.1744   20.4029 N   0  0  0  0  0  0  0  0  0  0  0  0
    2.0967   16.1983   20.6978 C   0  0  0  0  0  0  0  0  0  0  0  0
    0.2473   15.4274   19.3078 C   0  0  0  0  0  0  0  0  0  0  0  0
   -0.2237   14.3710   18.5734 N   0  0  0  0  0  0  0  0  0  0  0  0
   -1.0480   14.5830   17.5259 C   0  0  0  0  0  0  0  0  0  0  0  0
   -1.5103   15.7549   17.0601 N   0  0  0  0  0  0  0  0  0  0  0  0
   -1.0415   16.7729   17.8002 C   0  0  0  0  0  0  0  0  0  0  0  0
   -0.1959   16.7074   18.8954 C   0  0  0  0  0  0  0  0  0  0  0  0
    0.0329   17.9843   19.3572 N   0  0  0  0  0  0  0  0  0  0  0  0
   -0.6343   18.8358   18.5848 N   0  0  0  0  0  0  0  0  0  0  0  0
   -1.2837   18.1072   17.6547 N   0  0  0  0  0  0  0  0  0  0  0  0
   -2.1038   18.7577   16.6711 C   0  0  0  0  0  0  0  0  0  0  0  0
    3.8712   16.6609   22.3963 N   0  0  0  0  0  0  0  0  0  0  0  0
    3.3048   16.8641   23.2170 H   0  0  0  0  0  0  0  0  0  0  0  0
    6.0527   19.6611   21.8869 C   0  0  0  0  0  0  0  0  0  0  0  0
    5.5490   18.4700   22.4280 C   0  0  0  0  0  0  0  0  0  0  0  0
    4.4526   17.8136   21.8633 C   0  0  0  0  0  0  0  0  0  0  0  0
    3.8282   18.4318   20.7718 C   0  0  0  0  0  0  0  0  0  0  0  0
    4.3137   19.6213   20.2159 C   0  0  0  0  0  0  0  0  0  0  0  0
    5.4369   20.2317   20.7725 C   0  0  0  0  0  0  0  0  0  0  0  0
    7.3236   21.5719   22.5280 C   0  0  0  0  0  0  0  0  0  0  0  0
    7.1458   20.1618   22.5442 O   0  0  0  0  0  0  0  0  0  0  0  0
    3.6005   20.0761   19.1389 O   0  0  0  0  0  0  0  0  0  0  0  0
    2.2624   20.4933   19.3775 C   0  0  0  0  0  0  0  0  0  0  0  0
 25 26  1  0  0  0
 26 19  1  0  0  0
 19 20  1  0  0  0
 20 21  2  0  0  0
 21 17  1  0  0  0
 17  1  1  0  0  0
  1  2  1  0  0  0
  2  3  1  0  0  0
  3  4  1  0  0  0
  4  5  1  0  0  0
  5  7  1  0  0  0
  7  8  1  0  0  0
  8  9  2  0  0  0
  9 10  1  0  0  0
 10 11  2  0  0  0
 11 12  1  0  0  0
 12 13  1  0  0  0
 13 14  2  0  0  0
 14 15  1  0  0  0
 15 16  1  0  0  0
  5  6  1  0  0  0
 21 22  1  0  0  0
 22 23  2  0  0  0
 23 27  1  0  0  0
 27 28  1  0  0  0
 23 24  1  0  0  0
 24 19  2  0  0  0
  6  1  1  0  0  0
 12  7  2  0  0  0
 15 11  1  0  0  0
 17 18  1  0  0  0
M  END
> <minimizedAffinity>
-8.05884

$$$$
OCNT-2311088


 23 27  0  0  0  0  0  0  0  0999 V2000
    2.1501   19.5151   19.5451 C   0  0  0  0  0  0  0  0  0  0  0  0
    1.6462   20.7281   19.2848 N   0  0  0  0  0  0  0  0  0  0  0  0
    2.6256   21.5907   19.7775 O   0  0  0  0  0  0  0  0  0  0  0  0
    3.6128   20.8017   20.2994 C   0  0  0  0  0  0  0  0  0  0  0  0
    3.3757   19.5171   20.1546 N   0  0  0  0  0  0  0  0  0  0  0  0
   -2.0104   13.4588   16.5630 Br  0  0  0  0  0  0  0  0  0  0  0  0
   -0.9439   14.5473   17.6863 C   0  0  0  0  0  0  0  0  0  0  0  0
   -0.4966   14.0419   18.9053 C   0  0  0  0  0  0  0  0  0  0  0  0
    0.2926   14.8224   19.7561 C   0  0  0  0  0  0  0  0  0  0  0  0
    0.6098   16.1189   19.3347 C   0  0  0  0  0  0  0  0  0  0  0  0
    1.3568   17.0967   19.9526 N   0  0  0  0  0  0  0  0  0  0  0  0
    1.4027   18.2172   19.1701 C   0  0  0  0  0  0  0  0  0  0  0  0
    0.6813   17.9727   18.0252 C   0  0  0  0  0  0  0  0  0  0  0  0
    0.1726   16.6466   18.1171 C   0  0  0  0  0  0  0  0  0  0  0  0
   -0.6210   15.8443   17.2744 C   0  0  0  0  0  0  0  0  0  0  0  0
    1.8097   17.0086   20.8520 H   0  0  0  0  0  0  0  0  0  0  0  0
    4.8056   21.5005   20.8484 C   0  0  0  0  0  0  0  0  0  0  0  0
    5.9858   21.5458   19.8623 C   0  0  0  0  0  0  0  0  0  0  0  0
    7.1063   20.8915   20.6696 C   0  0  0  0  0  0  0  0  0  0  0  0
    7.5550   21.7972   21.8152 C   0  0  0  0  0  0  0  0  0  0  0  0
    6.3863   21.6760   22.7947 C   0  0  0  0  0  0  0  0  0  0  0  0
    5.4307   20.7516   22.0374 C   0  0  0  0  0  0  0  0  0  0  0  0
    6.3778   19.8704   21.3853 O   0  0  0  0  0  0  0  0  0  0  0  0
  6  7  1  0  0  0
  7  8  2  0  0  0
  8  9  1  0  0  0
  9 10  2  0  0  0
 10 11  1  0  0  0
 11 12  1  0  0  0
 12  1  1  0  0  0
  1  2  2  0  0  0
  2  3  1  0  0  0
  3  4  1  0  0  0
  4 17  1  0  0  0
 17 18  1  0  0  0
 18 19  1  0  0  0
 19 20  1  0  0  0
 20 21  1  0  0  0
 21 22  1  0  0  0
 22 23  1  0  0  0
  4  5  2  0  0  0
 12 13  2  0  0  0
 13 14  1  0  0  0
 14 15  2  0  0  0
 15  7  1  0  0  0
 14 10  1  0  0  0
  5  1  1  0  0  0
 22 17  1  0  0  0
 23 19  1  0  0  0
 11 16  1  0  0  0
M  END
> <minimizedAffinity>
-5.93304

$$$$
OCNT-2311091


 24 26  0  0  0  0  0  0  0  0999 V2000
    1.0985   19.7881   19.0703 C   0  0  0  0  0  0  0  0  0  0  0  0
    1.2670   18.4515   19.3617 C   0  0  0  0  0  0  0  0  0  0  0  0
    2.6056   17.6819   20.4324 Br  0  0  0  0  0  0  0  0  0  0  0  0
    0.2241   17.7511   18.6974 C   0  0  0  0  0  0  0  0  0  0  0  0
   -0.5803   18.6225   18.0623 N   0  0  0  0  0  0  0  0  0  0  0  0
   -0.0428   19.8216   18.3198 N   0  0  0  0  0  0  0  0  0  0  0  0
   -0.5240   20.6416   17.9667 H   0  0  0  0  0  0  0  0  0  0  0  0
   -0.0558   16.3178   18.6433 C   0  0  0  0  0  0  0  0  0  0  0  0
   -0.6672   15.7408   17.5226 C   0  0  0  0  0  0  0  0  0  0  0  0
   -0.9279   14.3684   17.4876 C   0  0  0  0  0  0  0  0  0  0  0  0
   -0.5880   13.5644   18.5744 C   0  0  0  0  0  0  0  0  0  0  0  0
    0.0067   14.1306   19.7004 C   0  0  0  0  0  0  0  0  0  0  0  0
    0.2682   15.5020   19.7367 C   0  0  0  0  0  0  0  0  0  0  0  0
    1.3353   21.9727   19.9054 O   0  0  0  0  0  0  0  0  0  0  0  0
    1.8477   20.9456   19.4757 C   0  0  0  0  0  0  0  0  0  0  0  0
    3.2172   20.8069   19.3561 N   0  0  0  0  0  0  0  0  0  0  0  0
    3.5985   19.8729   19.3107 H   0  0  0  0  0  0  0  0  0  0  0  0
    4.1069   21.8343   19.8564 C   0  0  0  0  0  0  0  0  0  0  0  0
    5.2196   21.2390   20.6675 C   0  0  0  0  0  0  0  0  0  0  0  0
    6.4896   21.8226   20.7126 C   0  0  0  0  0  0  0  0  0  0  0  0
    7.4978   21.2243   21.4632 C   0  0  0  0  0  0  0  0  0  0  0  0
    7.2041   20.0538   22.1420 C   0  0  0  0  0  0  0  0  0  0  0  0
    5.9946   19.4565   22.1155 N   0  0  0  0  0  0  0  0  0  0  0  0
    5.0320   20.0574   21.3791 C   0  0  0  0  0  0  0  0  0  0  0  0
 14 15  2  0  0  0
 15 16  1  0  0  0
 16 18  1  0  0  0
 18 19  1  0  0  0
 19 20  1  0  0  0
 20 21  2  0  0  0
 21 22  1  0  0  0
 22 23  2  0  0  0
 23 24  1  0  0  0
 15  1  1  0  0  0
  1  2  2  0  0  0
  2  3  1  0  0  0
  2  4  1  0  0  0
  4  8  1  0  0  0
  8  9  2  0  0  0
  9 10  1  0  0  0
 10 11  2  0  0  0
 11 12  1  0  0  0
 12 13  2  0  0  0
  4  5  2  0  0  0
  5  6  1  0  0  0
 24 19  2  0  0  0
  6  1  1  0  0  0
 13  8  1  0  0  0
 16 17  1  0  0  0
  6  7  1  0  0  0
M  END
> <minimizedAffinity>
-8.84999

$$$$
OCNT-2311094


 24 26  0  0  0  0  0  0  0  0999 V2000
    2.7168   19.7311   19.0955 N   0  0  0  0  0  0  0  0  0  0  0  0
    2.8584   19.3005   18.1864 H   0  0  0  0  0  0  0  0  0  0  0  0
    3.9937   15.9673   21.7839 C   0  0  0  0  0  0  0  0  0  0  0  0
    4.2451   17.3681   21.3224 C   0  0  0  0  0  0  0  0  0  0  0  0
    3.3970   17.8879   20.4201 N   0  0  0  0  0  0  0  0  0  0  0  0
    3.6081   19.1536   20.0203 C   0  0  0  0  0  0  0  0  0  0  0  0
    4.6552   19.9204   20.5273 C   0  0  0  0  0  0  0  0  0  0  0  0
    4.8497   21.3655   20.1509 C   0  0  0  0  0  0  0  0  0  0  0  0
    6.2014   21.9385   20.5778 C   0  0  0  0  0  0  0  0  0  0  0  0
    6.5295   21.5327   22.0076 C   0  0  0  0  0  0  0  0  0  0  0  0
    6.6304   20.0141   22.1056 C   0  0  0  0  0  0  0  0  0  0  0  0
    5.4595   19.3029   21.4783 C   0  0  0  0  0  0  0  0  0  0  0  0
    5.2747   18.0272   21.8715 N   0  0  0  0  0  0  0  0  0  0  0  0
    1.3103   19.6823   19.4922 C   0  0  0  0  0  0  0  0  0  0  0  0
    0.6517   18.4537   18.9093 C   0  0  0  0  0  0  0  0  0  0  0  0
    0.6911   17.2444   19.6303 C   0  0  0  0  0  0  0  0  0  0  0  0
    0.1159   16.1004   19.0989 C   0  0  0  0  0  0  0  0  0  0  0  0
    0.1426   14.4741   20.0480 Br  0  0  0  0  0  0  0  0  0  0  0  0
   -0.4735   16.1910   17.8548 C   0  0  0  0  0  0  0  0  0  0  0  0
   -0.5146   17.3316   17.1279 N   0  0  0  0  0  0  0  0  0  0  0  0
    0.0475   18.4411   17.6459 C   0  0  0  0  0  0  0  0  0  0  0  0
   -0.0147   19.5731   16.8346 N   0  0  0  0  0  0  0  0  0  0  0  0
    0.9163   19.9051   16.6058 H   0  0  0  0  0  0  0  0  0  0  0  0
   -0.5316   20.3180   17.2892 H   0  0  0  0  0  0  0  0  0  0  0  0
  3  4  1  0  0  0
  4  5  2  0  0  0
  5  6  1  0  0  0
  6  1  1  0  0  0
  1 14  1  0  0  0
 14 15  1  0  0  0
 15 16  1  0  0  0
 16 17  2  0  0  0
 17 18  1  0  0  0
 17 19  1  0  0  0
 19 20  2  0  0  0
 20 21  1  0  0  0
 21 22  1  0  0  0
  6  7  2  0  0  0
  7  8  1  0  0  0
  8  9  1  0  0  0
  9 10  1  0  0  0
 10 11  1  0  0  0
 11 12  1  0  0  0
 12 13  2  0  0  0
 13  4  1  0  0  0
 21 15  2  0  0  0
 12  7  1  0  0  0
  1  2  1  0  0  0
 22 23  1  0  0  0
 22 24  1  0  0  0
M  END
> <minimizedAffinity>
-11.48857

$$$$
OCNT-2311111


 23 26  0  0  0  0  0  0  0  0999 V2000
    4.7100   20.4430   21.0194 C   0  0  0  0  0  0  0  0  0  0  0  0
    3.8419   20.8377   19.9832 C   0  0  0  0  0  0  0  0  0  0  0  0
    2.8633   19.9805   19.4625 C   0  0  0  0  0  0  0  0  0  0  0  0
    2.7135   18.6793   19.9533 C   0  0  0  0  0  0  0  0  0  0  0  0
    3.5782   18.2568   20.9674 C   0  0  0  0  0  0  0  0  0  0  0  0
    4.5533   19.1203   21.4810 C   0  0  0  0  0  0  0  0  0  0  0  0
    1.6943   17.7731   19.4041 C   0  0  0  0  0  0  0  0  0  0  0  0
    1.5539   16.4907   19.9697 C   0  0  0  0  0  0  0  0  0  0  0  0
    0.6025   15.6263   19.4533 C   0  0  0  0  0  0  0  0  0  0  0  0
   -0.2160   15.9934   18.3888 C   0  0  0  0  0  0  0  0  0  0  0  0
   -0.1289   17.2541   17.8346 C   0  0  0  0  0  0  0  0  0  0  0  0
    0.8355   18.1394   18.3357 C   0  0  0  0  0  0  0  0  0  0  0  0
    0.9137   19.7115   17.6088 Cl  0  0  0  0  0  0  0  0  0  0  0  0
   -1.1724   15.0034   18.0608 N   0  0  0  0  0  0  0  0  0  0  0  0
   -0.6332   13.7978   18.7160 C   0  0  0  0  0  0  0  0  0  0  0  0
    0.2336   14.2547   19.9042 C   0  0  0  0  0  0  0  0  0  0  0  0
   -1.3021   14.9235   17.0553 H   0  0  0  0  0  0  0  0  0  0  0  0
    5.2974   22.2557   22.6617 O   0  0  0  0  0  0  0  0  0  0  0  0
    5.8535   21.4030   21.6290 C   0  0  0  0  0  0  0  0  0  0  0  0
    7.2231   20.7522   22.0478 C   0  0  0  0  0  0  0  0  0  0  0  0
    7.7581   21.0826   20.6463 C   0  0  0  0  0  0  0  0  0  0  0  0
    6.7096   22.2030   20.5764 C   0  0  0  0  0  0  0  0  0  0  0  0
    4.8396   21.6411   23.2600 H   0  0  0  0  0  0  0  0  0  0  0  0
 18 19  1  0  0  0
 19  1  1  0  0  0
  1  2  1  0  0  0
  2  3  2  0  0  0
  3  4  1  0  0  0
  4  7  1  0  0  0
  7  8  2  0  0  0
  8  9  1  0  0  0
  9 10  2  0  0  0
 10 11  1  0  0  0
 11 12  2  0  0  0
 12 13  1  0  0  0
 10 14  1  0  0  0
 14 15  1  0  0  0
 15 16  1  0  0  0
  4  5  2  0  0  0
  5  6  1  0  0  0
 19 20  1  0  0  0
 20 21  1  0  0  0
 21 22  1  0  0  0
 22 19  1  0  0  0
  6  1  2  0  0  0
 12  7  1  0  0  0
 16  9  1  0  0  0
 18 23  1  0  0  0
 14 17  1  0  0  0
M  END
> <minimizedAffinity>
-9.69645

$$$$
OCNT-2311121


 27 29  0  0  0  0  0  0  0  0999 V2000
    3.8003   17.2898   21.5418 N   0  0  0  0  0  0  0  0  0  0  0  0
    3.5645   15.9412   21.6092 C   0  0  0  0  0  0  0  0  0  0  0  0
    4.3698   15.1212   22.0332 O   0  0  0  0  0  0  0  0  0  0  0  0
    3.0977   17.8504   21.0570 H   0  0  0  0  0  0  0  0  0  0  0  0
    2.2138   15.5405   21.0950 C   0  0  0  0  0  0  0  0  0  0  0  0
    1.5699   14.4271   21.6081 C   0  0  0  0  0  0  0  0  0  0  0  0
    0.3351   14.0911   21.0696 C   0  0  0  0  0  0  0  0  0  0  0  0
   -0.2123   14.8849   20.0607 C   0  0  0  0  0  0  0  0  0  0  0  0
    0.4882   16.0010   19.6007 C   0  0  0  0  0  0  0  0  0  0  0  0
    1.7017   16.3276   20.1094 N   0  0  0  0  0  0  0  0  0  0  0  0
   -0.0223   16.9104   18.5534 C   0  0  0  0  0  0  0  0  0  0  0  0
    0.7375   17.2780   17.4323 C   0  0  0  0  0  0  0  0  0  0  0  0
    0.1911   18.1391   16.4904 C   0  0  0  0  0  0  0  0  0  0  0  0
   -1.0472   18.6656   16.5816 N   0  0  0  0  0  0  0  0  0  0  0  0
   -1.7698   18.3171   17.6656 C   0  0  0  0  0  0  0  0  0  0  0  0
   -1.3101   17.4610   18.6540 C   0  0  0  0  0  0  0  0  0  0  0  0
    5.0770   17.8749   21.8398 C   0  0  0  0  0  0  0  0  0  0  0  0
    4.3231   19.8376   20.3450 C   0  0  0  0  0  0  0  0  0  0  0  0
    4.4932   21.1877   19.9752 C   0  0  0  0  0  0  0  0  0  0  0  0
    5.4155   22.0090   20.6223 C   0  0  0  0  0  0  0  0  0  0  0  0
    6.1972   21.4946   21.6455 C   0  0  0  0  0  0  0  0  0  0  0  0
    6.0485   20.1633   22.0254 C   0  0  0  0  0  0  0  0  0  0  0  0
    5.1137   19.3186   21.3919 C   0  0  0  0  0  0  0  0  0  0  0  0
    3.2953   19.0279   19.5771 C   0  0  0  0  0  0  0  0  0  0  0  0
    1.2244   20.2611   19.2936 C   0  0  0  0  0  0  0  0  0  0  0  0
    1.9179   19.2249   20.0417 N   0  0  0  0  0  0  0  0  0  0  0  0
    1.4099   18.3488   19.9189 H   0  0  0  0  0  0  0  0  0  0  0  0
 25 26  1  0  0  0
 26 24  1  0  0  0
 24 18  1  0  0  0
 18 19  2  0  0  0
 19 20  1  0  0  0
 20 21  2  0  0  0
 21 22  1  0  0  0
 22 23  2  0  0  0
 23 17  1  0  0  0
 17  1  1  0  0  0
  1  2  1  0  0  0
  2  3  2  0  0  0
  2  5  1  0  0  0
  5  6  1  0  0  0
  6  7  2  0  0  0
  7  8  1  0  0  0
  8  9  2  0  0  0
  9 11  1  0  0  0
 11 12  2  0  0  0
 12 13  1  0  0  0
 13 14  2  0  0  0
 14 15  1  0  0  0
 15 16  2  0  0  0
  9 10  1  0  0  0
 23 18  1  0  0  0
 10  5  2  0  0  0
 16 11  1  0  0  0
 26 27  1  0  0  0
  1  4  1  0  0  0
M  END
> <minimizedAffinity>
-10.37489

$$$$
OCNT-2311123


 24 27  0  0  0  0  0  0  0  0999 V2000
    0.6582   18.8553   18.2160 N   0  0  0  0  0  0  0  0  0  0  0  0
    1.9741   18.7501   18.5709 C   0  0  0  0  0  0  0  0  0  0  0  0
    2.2221   19.9014   19.2852 C   0  0  0  0  0  0  0  0  0  0  0  0
    1.0661   20.6410   19.3483 N   0  0  0  0  0  0  0  0  0  0  0  0
    0.1146   19.9901   18.6936 N   0  0  0  0  0  0  0  0  0  0  0  0
    3.4761   20.3122   19.8982 C   0  0  0  0  0  0  0  0  0  0  0  0
    3.9631   21.6236   19.7744 C   0  0  0  0  0  0  0  0  0  0  0  0
    5.1744   22.0183   20.3669 C   0  0  0  0  0  0  0  0  0  0  0  0
    5.9084   21.0726   21.0992 C   0  0  0  0  0  0  0  0  0  0  0  0
    7.1214   21.0565   21.8224 C   0  0  0  0  0  0  0  0  0  0  0  0
    7.3883   19.8619   22.3573 N   0  0  0  0  0  0  0  0  0  0  0  0
    6.3400   19.1090   21.9758 N   0  0  0  0  0  0  0  0  0  0  0  0
    5.4171   19.7795   21.2170 C   0  0  0  0  0  0  0  0  0  0  0  0
    4.2128   19.3659   20.6348 C   0  0  0  0  0  0  0  0  0  0  0  0
    6.3123   18.1386   22.2672 H   0  0  0  0  0  0  0  0  0  0  0  0
   -1.5423   18.5172   17.1711 C   0  0  0  0  0  0  0  0  0  0  0  0
   -0.1641   17.9134   17.4571 C   0  0  0  0  0  0  0  0  0  0  0  0
   -0.1641   16.5442   18.1263 C   0  0  0  0  0  0  0  0  0  0  0  0
    0.3356   16.4283   19.4394 C   0  0  0  0  0  0  0  0  0  0  0  0
    0.3460   15.1983   20.1035 C   0  0  0  0  0  0  0  0  0  0  0  0
   -0.1451   14.0623   19.4675 C   0  0  0  0  0  0  0  0  0  0  0  0
   -0.6430   14.1675   18.1759 C   0  0  0  0  0  0  0  0  0  0  0  0
   -1.1213   13.0767   17.5631 F   0  0  0  0  0  0  0  0  0  0  0  0
   -0.6590   15.3881   17.5037 C   0  0  0  0  0  0  0  0  0  0  0  0
 16 17  1  0  0  0
 17 18  1  0  0  0
 18 19  2  0  0  0
 19 20  1  0  0  0
 20 21  2  0  0  0
 21 22  1  0  0  0
 22 23  1  0  0  0
 22 24  2  0  0  0
 17  1  1  0  0  0
  1  2  1  0  0  0
  2  3  2  0  0  0
  3  6  1  0  0  0
  6  7  2  0  0  0
  7  8  1  0  0  0
  8  9  2  0  0  0
  9 10  1  0  0  0
 10 11  2  0  0  0
 11 12  1  0  0  0
 12 13  1  0  0  0
 13 14  2  0  0  0
  3  4  1  0  0  0
  4  5  2  0  0  0
 24 18  1  0  0  0
  5  1  1  0  0  0
 14  6  1  0  0  0
 13  9  1  0  0  0
 12 15  1  0  0  0
M  END
> <minimizedAffinity>
-11.14298

$$$$
OCNT-2311133


 22 24  0  0  0  0  0  0  0  0999 V2000
    1.7157   16.3567   20.6713 C   0  0  0  0  0  0  0  0  0  0  0  0
    1.6390   15.0617   21.2018 C   0  0  0  0  0  0  0  0  0  0  0  0
    2.6739   14.4067   21.7841 N   0  0  0  0  0  0  0  0  0  0  0  0
    3.8192   15.1132   21.8458 C   0  0  0  0  0  0  0  0  0  0  0  0
    3.9070   16.4170   21.3948 C   0  0  0  0  0  0  0  0  0  0  0  0
    2.8692   17.0515   20.8004 N   0  0  0  0  0  0  0  0  0  0  0  0
   -0.2481   18.5768   16.3169 C   0  0  0  0  0  0  0  0  0  0  0  0
   -0.7391   17.9756   17.5514 N   0  0  0  0  0  0  0  0  0  0  0  0
   -0.2293   16.5946   17.6917 C   0  0  0  0  0  0  0  0  0  0  0  0
   -0.1885   16.0696   19.1480 C   0  0  0  0  0  0  0  0  0  0  0  0
    0.6281   16.9415   20.0198 N   0  0  0  0  0  0  0  0  0  0  0  0
    0.8554   18.3032   19.5071 C   0  0  0  0  0  0  0  0  0  0  0  0
   -0.3904   18.7901   18.7342 C   0  0  0  0  0  0  0  0  0  0  0  0
    5.1347   17.0324   21.4571 O   0  0  0  0  0  0  0  0  0  0  0  0
    5.2326   17.9858   22.5132 C   0  0  0  0  0  0  0  0  0  0  0  0
    5.6074   19.3103   21.8912 C   0  0  0  0  0  0  0  0  0  0  0  0
    6.8949   19.8374   22.0808 C   0  0  0  0  0  0  0  0  0  0  0  0
    7.2450   21.0697   21.5259 C   0  0  0  0  0  0  0  0  0  0  0  0
    6.3122   21.7898   20.7815 C   0  0  0  0  0  0  0  0  0  0  0  0
    5.0268   21.2768   20.5977 C   0  0  0  0  0  0  0  0  0  0  0  0
    3.8754   22.1641   19.6742 Cl  0  0  0  0  0  0  0  0  0  0  0  0
    4.6673   20.0475   21.1522 C   0  0  0  0  0  0  0  0  0  0  0  0
  7  8  1  0  0  0
  8  9  1  0  0  0
  9 10  1  0  0  0
 10 11  1  0  0  0
 11  1  1  0  0  0
  1  2  2  0  0  0
  2  3  1  0  0  0
  3  4  2  0  0  0
  4  5  1  0  0  0
  5 14  1  0  0  0
 14 15  1  0  0  0
 15 16  1  0  0  0
 16 17  2  0  0  0
 17 18  1  0  0  0
 18 19  2  0  0  0
 19 20  1  0  0  0
 20 21  1  0  0  0
 20 22  2  0  0  0
  5  6  2  0  0  0
 11 12  1  0  0  0
 12 13  1  0  0  0
 13  8  1  0  0  0
  6  1  1  0  0  0
 22 16  1  0  0  0
M  END
> <minimizedAffinity>
-9.33431

$$$$
OCNT-2311135


 24 26  0  0  0  0  0  0  0  0999 V2000
    5.0632   21.2078   20.7333 C   0  0  0  0  0  0  0  0  0  0  0  0
    6.0218   21.8631   19.9849 C   0  0  0  0  0  0  0  0  0  0  0  0
    7.1912   21.8302   20.7540 C   0  0  0  0  0  0  0  0  0  0  0  0
    7.0253   21.1637   21.8926 N   0  0  0  0  0  0  0  0  0  0  0  0
    5.7287   20.7495   21.8595 N   0  0  0  0  0  0  0  0  0  0  0  0
    3.9329   19.0885   19.0516 O   0  0  0  0  0  0  0  0  0  0  0  0
    3.2737   20.0194   19.5064 C   0  0  0  0  0  0  0  0  0  0  0  0
    3.7497   21.0240   20.3360 N   0  0  0  0  0  0  0  0  0  0  0  0
    3.0384   21.5375   20.8541 H   0  0  0  0  0  0  0  0  0  0  0  0
    1.7787   20.1729   19.2187 C   0  0  0  0  0  0  0  0  0  0  0  0
    1.4579   19.8389   17.9388 F   0  0  0  0  0  0  0  0  0  0  0  0
    1.0234   19.3594   20.0177 F   0  0  0  0  0  0  0  0  0  0  0  0
    5.3303   19.7829   22.8820 C   0  0  0  0  0  0  0  0  0  0  0  0
    4.8766   18.4832   22.3083 C   0  0  0  0  0  0  0  0  0  0  0  0
    3.5851   18.0053   22.1967 C   0  0  0  0  0  0  0  0  0  0  0  0
    3.6458   16.7636   21.6010 N   0  0  0  0  0  0  0  0  0  0  0  0
    4.9315   16.4214   21.3280 N   0  0  0  0  0  0  0  0  0  0  0  0
    5.6615   17.4419   21.7761 C   0  0  0  0  0  0  0  0  0  0  0  0
    2.5673   15.9009   21.2581 C   0  0  0  0  0  0  0  0  0  0  0  0
    2.4189   14.6448   21.8633 C   0  0  0  0  0  0  0  0  0  0  0  0
    1.3458   13.8207   21.5101 C   0  0  0  0  0  0  0  0  0  0  0  0
    0.4199   14.2415   20.5570 C   0  0  0  0  0  0  0  0  0  0  0  0
    0.5623   15.4877   19.9509 C   0  0  0  0  0  0  0  0  0  0  0  0
    1.6313   16.3164   20.2982 C   0  0  0  0  0  0  0  0  0  0  0  0
  6  7  2  0  0  0
  7  8  1  0  0  0
  8  1  1  0  0  0
  1  2  2  0  0  0
  2  3  1  0  0  0
  3  4  2  0  0  0
  4  5  1  0  0  0
  5 13  1  0  0  0
 13 14  1  0  0  0
 14 15  2  0  0  0
 15 16  1  0  0  0
 16 19  1  0  0  0
 19 20  2  0  0  0
 20 21  1  0  0  0
 21 22  2  0  0  0
 22 23  1  0  0  0
 23 24  2  0  0  0
 16 17  1  0  0  0
 17 18  2  0  0  0
  7 10  1  0  0  0
 10 11  1  0  0  0
 10 12  1  0  0  0
  5  1  1  0  0  0
 18 14  1  0  0  0
 24 19  1  0  0  0
  8  9  1  0  0  0
M  END
> <minimizedAffinity>
-9.05613

$$$$
OCNT-2311136


 25 28  0  0  0  0  0  0  0  0999 V2000
    3.8709   16.4353   21.6458 C   0  0  0  0  0  0  0  0  0  0  0  0
    4.5651   15.4267   21.7575 O   0  0  0  0  0  0  0  0  0  0  0  0
    2.4980   16.3840   21.6519 N   0  0  0  0  0  0  0  0  0  0  0  0
    1.9908   17.2129   21.3589 H   0  0  0  0  0  0  0  0  0  0  0  0
    3.9432   21.9579   19.7212 C   0  0  0  0  0  0  0  0  0  0  0  0
    4.9931   21.2524   20.5339 C   0  0  0  0  0  0  0  0  0  0  0  0
    6.1739   21.9499   20.8804 C   0  0  0  0  0  0  0  0  0  0  0  0
    7.1836   21.3605   21.6449 C   0  0  0  0  0  0  0  0  0  0  0  0
    7.0714   20.0427   22.0907 C   0  0  0  0  0  0  0  0  0  0  0  0
    5.9114   19.3621   21.7258 C   0  0  0  0  0  0  0  0  0  0  0  0
    4.8822   19.9129   20.9698 C   0  0  0  0  0  0  0  0  0  0  0  0
    3.9212   18.8744   20.8297 C   0  0  0  0  0  0  0  0  0  0  0  0
    4.4167   17.7660   21.4894 C   0  0  0  0  0  0  0  0  0  0  0  0
    5.6290   18.0708   22.0521 O   0  0  0  0  0  0  0  0  0  0  0  0
    1.7978   15.1250   21.6015 C   0  0  0  0  0  0  0  0  0  0  0  0
    0.9155   15.1129   20.3975 C   0  0  0  0  0  0  0  0  0  0  0  0
    0.8224   16.1962   19.6088 N   0  0  0  0  0  0  0  0  0  0  0  0
   -0.0376   15.8285   18.6388 N   0  0  0  0  0  0  0  0  0  0  0  0
   -0.5116   14.5572   18.7985 C   0  0  0  0  0  0  0  0  0  0  0  0
    0.0820   14.0659   19.9376 C   0  0  0  0  0  0  0  0  0  0  0  0
   -0.3401   16.7619   17.5678 C   0  0  0  0  0  0  0  0  0  0  0  0
   -1.7056   17.4442   17.7440 C   0  0  0  0  0  0  0  0  0  0  0  0
   -1.4932   18.8641   17.2430 C   0  0  0  0  0  0  0  0  0  0  0  0
   -0.0786   19.1816   17.6970 C   0  0  0  0  0  0  0  0  0  0  0  0
    0.6888   17.8963   17.4109 C   0  0  0  0  0  0  0  0  0  0  0  0
  5  6  1  0  0  0
  6  7  1  0  0  0
  7  8  2  0  0  0
  8  9  1  0  0  0
  9 10  2  0  0  0
 10 11  1  0  0  0
 11 12  1  0  0  0
 12 13  2  0  0  0
 13  1  1  0  0  0
  1  2  2  0  0  0
  1  3  1  0  0  0
  3 15  1  0  0  0
 15 16  1  0  0  0
 16 17  2  0  0  0
 17 18  1  0  0  0
 18 21  1  0  0  0
 21 22  1  0  0  0
 22 23  1  0  0  0
 23 24  1  0  0  0
 24 25  1  0  0  0
 18 19  1  0  0  0
 19 20  2  0  0  0
 13 14  1  0  0  0
 11  6  2  0  0  0
 20 16  1  0  0  0
 14 10  1  0  0  0
 25 21  1  0  0  0
  3  4  1  0  0  0
M  END
> <minimizedAffinity>
-11.42630

$$$$
OCNT-2311148


 26 29  0  0  0  0  0  0  0  0999 V2000
    4.8186   17.3803   21.0808 C   0  0  0  0  0  0  0  0  0  0  0  0
    3.2909   17.4807   20.9738 C   0  0  0  0  0  0  0  0  0  0  0  0
    2.5902   16.6615   22.0560 C   0  0  0  0  0  0  0  0  0  0  0  0
    2.9690   15.2458   22.0582 N   0  0  0  0  0  0  0  0  0  0  0  0
    4.2713   14.9473   21.4683 C   0  0  0  0  0  0  0  0  0  0  0  0
    5.2619   16.0708   21.7508 C   0  0  0  0  0  0  0  0  0  0  0  0
    5.3472   18.4466   21.8797 O   0  0  0  0  0  0  0  0  0  0  0  0
    7.7421   19.7325   22.4628 C   0  0  0  0  0  0  0  0  0  0  0  0
    6.6616   20.3700   21.6427 C   0  0  0  0  0  0  0  0  0  0  0  0
    6.8340   21.6474   21.1203 C   0  0  0  0  0  0  0  0  0  0  0  0
    5.9222   22.2864   20.3566 N   0  0  0  0  0  0  0  0  0  0  0  0
    4.7815   21.6173   20.0988 C   0  0  0  0  0  0  0  0  0  0  0  0
    4.5085   20.3404   20.5633 C   0  0  0  0  0  0  0  0  0  0  0  0
    5.4671   19.7005   21.3440 C   0  0  0  0  0  0  0  0  0  0  0  0
    1.8948   14.3213   21.6767 C   0  0  0  0  0  0  0  0  0  0  0  0
    1.0412   14.8206   20.5593 C   0  0  0  0  0  0  0  0  0  0  0  0
    0.9638   16.0839   20.0122 C   0  0  0  0  0  0  0  0  0  0  0  0
    0.0241   15.9848   19.0124 N   0  0  0  0  0  0  0  0  0  0  0  0
   -0.4408   14.7117   18.9616 N   0  0  0  0  0  0  0  0  0  0  0  0
    0.1857   13.9949   19.8834 N   0  0  0  0  0  0  0  0  0  0  0  0
   -0.4471   16.9911   18.1307 C   0  0  0  0  0  0  0  0  0  0  0  0
   -1.8283   17.2067   18.0022 C   0  0  0  0  0  0  0  0  0  0  0  0
   -2.3083   18.1934   17.1378 C   0  0  0  0  0  0  0  0  0  0  0  0
   -1.4176   18.9675   16.3972 C   0  0  0  0  0  0  0  0  0  0  0  0
   -0.0449   18.7579   16.5192 C   0  0  0  0  0  0  0  0  0  0  0  0
    0.4447   17.7742   17.3840 C   0  0  0  0  0  0  0  0  0  0  0  0
  8  9  1  0  0  0
  9 10  2  0  0  0
 10 11  1  0  0  0
 11 12  2  0  0  0
 12 13  1  0  0  0
 13 14  2  0  0  0
 14  7  1  0  0  0
  7  1  1  0  0  0
  1  2  1  0  0  0
  2  3  1  0  0  0
  3  4  1  0  0  0
  4 15  1  0  0  0
 15 16  1  0  0  0
 16 17  2  0  0  0
 17 18  1  0  0  0
 18 21  1  0  0  0
 21 22  2  0  0  0
 22 23  1  0  0  0
 23 24  2  0  0  0
 24 25  1  0  0  0
 25 26  2  0  0  0
 18 19  1  0  0  0
 19 20  2  0  0  0
  4  5  1  0  0  0
  5  6  1  0  0  0
 14  9  1  0  0  0
  6  1  1  0  0  0
 20 16  1  0  0  0
 26 21  1  0  0  0
M  END
> <minimizedAffinity>
-7.22228

$$$$
OCNT-2311155


 26 28  0  0  0  0  0  0  0  0999 V2000
    1.3861   15.1112   20.8999 C   0  0  0  0  0  0  0  0  0  0  0  0
    2.1364   14.2229   21.6426 C   0  0  0  0  0  0  0  0  0  0  0  0
    3.5934   14.9615   22.1439 S   0  0  0  0  0  0  0  0  0  0  0  0
    3.1357   16.4258   21.3534 C   0  0  0  0  0  0  0  0  0  0  0  0
    1.9660   16.3659   20.7414 N   0  0  0  0  0  0  0  0  0  0  0  0
    3.9966   17.6283   21.3597 C   0  0  0  0  0  0  0  0  0  0  0  0
    3.9312   18.5118   20.2680 C   0  0  0  0  0  0  0  0  0  0  0  0
    4.7185   19.6676   20.2149 C   0  0  0  0  0  0  0  0  0  0  0  0
    5.5932   19.9795   21.2626 C   0  0  0  0  0  0  0  0  0  0  0  0
    5.6720   19.1032   22.3530 C   0  0  0  0  0  0  0  0  0  0  0  0
    4.8819   17.9468   22.4021 C   0  0  0  0  0  0  0  0  0  0  0  0
    6.4602   21.2132   21.1999 C   0  0  0  0  0  0  0  0  0  0  0  0
    5.8099   22.2987   20.6954 F   0  0  0  0  0  0  0  0  0  0  0  0
    6.9319   21.5975   22.4188 F   0  0  0  0  0  0  0  0  0  0  0  0
    7.5570   21.0350   20.4135 F   0  0  0  0  0  0  0  0  0  0  0  0
    0.0413   14.8572   20.2882 C   0  0  0  0  0  0  0  0  0  0  0  0
    0.0792   15.3588   18.9097 N   0  0  0  0  0  0  0  0  0  0  0  0
   -0.1318   14.5598   18.3072 H   0  0  0  0  0  0  0  0  0  0  0  0
   -0.9264   16.3906   18.6791 C   0  0  0  0  0  0  0  0  0  0  0  0
    1.3900   20.8853   19.4096 C   0  0  0  0  0  0  0  0  0  0  0  0
    0.6715   19.7113   18.8612 C   0  0  0  0  0  0  0  0  0  0  0  0
    0.2663   19.7050   17.5875 N   0  0  0  0  0  0  0  0  0  0  0  0
   -0.3417   18.5114   17.4370 N   0  0  0  0  0  0  0  0  0  0  0  0
   -0.8903   18.1639   16.1465 C   0  0  0  0  0  0  0  0  0  0  0  0
   -0.3274   17.7468   18.5766 C   0  0  0  0  0  0  0  0  0  0  0  0
    0.3248   18.5130   19.5216 C   0  0  0  0  0  0  0  0  0  0  0  0
 20 21  1  0  0  0
 21 22  2  0  0  0
 22 23  1  0  0  0
 23 24  1  0  0  0
 23 25  1  0  0  0
 25 19  1  0  0  0
 19 17  1  0  0  0
 17 16  1  0  0  0
 16  1  1  0  0  0
  1  2  2  0  0  0
  2  3  1  0  0  0
  3  4  1  0  0  0
  4  6  1  0  0  0
  6  7  1  0  0  0
  7  8  2  0  0  0
  8  9  1  0  0  0
  9 12  1  0  0  0
 12 13  1  0  0  0
 12 14  1  0  0  0
 12 15  1  0  0  0
  9 10  2  0  0  0
 10 11  1  0  0  0
  4  5  2  0  0  0
 25 26  2  0  0  0
 26 21  1  0  0  0
  5  1  1  0  0  0
 11  6  2  0  0  0
 17 18  1  0  0  0
M  END
> <minimizedAffinity>
-9.86140

$$$$
OCNT-2311159


 32 35  0  0  0  0  0  0  0  0999 V2000
    2.6414   20.0946   19.4028 N   0  0  0  0  0  0  0  0  0  0  0  0
    1.3815   20.6465   19.2486 C   0  0  0  0  0  0  0  0  0  0  0  0
    1.0756   21.8159   19.4666 O   0  0  0  0  0  0  0  0  0  0  0  0
    2.7496   19.1174   19.1638 H   0  0  0  0  0  0  0  0  0  0  0  0
    5.8690   20.5763   21.1584 C   0  0  0  0  0  0  0  0  0  0  0  0
    6.2206   21.8690   20.7556 C   0  0  0  0  0  0  0  0  0  0  0  0
    5.3859   22.5893   19.9031 C   0  0  0  0  0  0  0  0  0  0  0  0
    4.1924   22.0287   19.4403 C   0  0  0  0  0  0  0  0  0  0  0  0
    3.8206   20.7425   19.8277 C   0  0  0  0  0  0  0  0  0  0  0  0
    4.6617   20.0274   20.6924 C   0  0  0  0  0  0  0  0  0  0  0  0
    6.7698   19.7913   22.0773 C   0  0  0  0  0  0  0  0  0  0  0  0
    6.3052   18.2544   24.2960 N   0  0  0  0  0  0  0  0  0  0  0  0
    5.9407   18.3026   22.6626 S   0  0  0  0  0  0  0  0  0  0  0  0
    6.5493   17.1254   22.0841 O   0  0  0  0  0  0  0  0  0  0  0  0
    4.5110   18.5092   22.6040 O   0  0  0  0  0  0  0  0  0  0  0  0
    6.9510   17.4888   24.4981 H   0  0  0  0  0  0  0  0  0  0  0  0
    5.4507   18.2383   24.8545 H   0  0  0  0  0  0  0  0  0  0  0  0
    0.3157   19.6564   18.7853 C   0  0  0  0  0  0  0  0  0  0  0  0
   -0.0388   19.8172   17.2969 C   0  0  0  0  0  0  0  0  0  0  0  0
    0.3076   18.5735   16.4838 C   0  0  0  0  0  0  0  0  0  0  0  0
   -0.3177   17.3110   17.0837 C   0  0  0  0  0  0  0  0  0  0  0  0
   -0.1808   17.2684   18.5484 N   0  0  0  0  0  0  0  0  0  0  0  0
    0.7501   18.2321   19.1494 C   0  0  0  0  0  0  0  0  0  0  0  0
   -0.0091   15.9552   19.0260 C   0  0  0  0  0  0  0  0  0  0  0  0
   -0.7239   14.9431   18.4732 N   0  0  0  0  0  0  0  0  0  0  0  0
   -0.5636   13.6949   18.9408 C   0  0  0  0  0  0  0  0  0  0  0  0
    0.2414   13.2888   19.9238 N   0  0  0  0  0  0  0  0  0  0  0  0
    0.9572   14.3007   20.4396 C   0  0  0  0  0  0  0  0  0  0  0  0
    0.9016   15.6330   20.0594 C   0  0  0  0  0  0  0  0  0  0  0  0
    1.8460   16.4101   20.8180 C   0  0  0  0  0  0  0  0  0  0  0  0
    2.5409   15.6577   21.7397 C   0  0  0  0  0  0  0  0  0  0  0  0
    2.0766   14.0132   21.6948 S   0  0  0  0  0  0  0  0  0  0  0  0
 12 13  1  0  0  0
 13 14  2  0  0  0
 13 15  2  0  0  0
 13 11  1  0  0  0
 11  5  1  0  0  0
  5  6  2  0  0  0
  6  7  1  0  0  0
  7  8  2  0  0  0
  8  9  1  0  0  0
  9  1  1  0  0  0
  1  2  1  0  0  0
  2  3  2  0  0  0
  2 18  1  0  0  0
 18 19  1  0  0  0
 19 20  1  0  0  0
 20 21  1  0  0  0
 21 22  1  0  0  0
 22 24  1  0  0  0
 24 25  1  0  0  0
 25 26  2  0  0  0
 26 27  1  0  0  0
 27 28  2  0  0  0
 28 29  1  0  0  0
 29 30  1  0  0  0
 30 31  2  0  0  0
 31 32  1  0  0  0
 22 23  1  0  0  0
  9 10  2  0  0  0
 10  5  1  0  0  0
 23 18  1  0  0  0
 29 24  2  0  0  0
 32 28  1  0  0  0
 12 16  1  0  0  0
 12 17  1  0  0  0
  1  4  1  0  0  0
M  END
> <minimizedAffinity>
-4.80055

$$$$
OCNT-2311166


 25 27  0  0  0  0  0  0  0  0999 V2000
    3.8572   16.8413   21.6046 C   0  0  0  0  0  0  0  0  0  0  0  0
    4.1140   15.6510   21.7400 O   0  0  0  0  0  0  0  0  0  0  0  0
    2.7672   17.3885   20.9548 N   0  0  0  0  0  0  0  0  0  0  0  0
    2.7719   18.4057   20.9727 H   0  0  0  0  0  0  0  0  0  0  0  0
    1.7090   16.7319   20.3054 C   0  0  0  0  0  0  0  0  0  0  0  0
    1.3533   15.4071   20.5526 C   0  0  0  0  0  0  0  0  0  0  0  0
    0.2884   14.8260   19.8635 C   0  0  0  0  0  0  0  0  0  0  0  0
   -0.4274   15.5677   18.9239 C   0  0  0  0  0  0  0  0  0  0  0  0
   -0.0936   16.9020   18.6564 C   0  0  0  0  0  0  0  0  0  0  0  0
    0.9825   17.4717   19.3574 C   0  0  0  0  0  0  0  0  0  0  0  0
   -0.8730   17.6449   17.6630 C   0  0  0  0  0  0  0  0  0  0  0  0
   -0.5126   17.9200   16.4209 N   0  0  0  0  0  0  0  0  0  0  0  0
   -1.5201   18.6321   15.8133 N   0  0  0  0  0  0  0  0  0  0  0  0
   -2.4806   18.7790   16.6909 C   0  0  0  0  0  0  0  0  0  0  0  0
   -2.1226   18.1805   17.8586 N   0  0  0  0  0  0  0  0  0  0  0  0
   -2.6741   18.1362   18.7000 H   0  0  0  0  0  0  0  0  0  0  0  0
    6.2037   19.4299   22.2273 N   0  0  0  0  0  0  0  0  0  0  0  0
    5.7748   19.3075   23.5154 C   0  0  0  0  0  0  0  0  0  0  0  0
    4.8220   18.3178   23.5049 C   0  0  0  0  0  0  0  0  0  0  0  0
    4.7363   17.8908   22.1556 C   0  0  0  0  0  0  0  0  0  0  0  0
    5.5929   18.5846   21.3726 N   0  0  0  0  0  0  0  0  0  0  0  0
    7.2114   20.3480   21.7371 C   0  0  0  0  0  0  0  0  0  0  0  0
    6.6822   21.2229   20.6079 C   0  0  0  0  0  0  0  0  0  0  0  0
    4.4439   21.8968   20.1591 C   0  0  0  0  0  0  0  0  0  0  0  0
    5.5599   22.0007   21.0345 O   0  0  0  0  0  0  0  0  0  0  0  0
 24 25  1  0  0  0
 25 23  1  0  0  0
 23 22  1  0  0  0
 22 17  1  0  0  0
 17 18  1  0  0  0
 18 19  2  0  0  0
 19 20  1  0  0  0
 20  1  1  0  0  0
  1  2  2  0  0  0
  1  3  1  0  0  0
  3  5  1  0  0  0
  5  6  2  0  0  0
  6  7  1  0  0  0
  7  8  2  0  0  0
  8  9  1  0  0  0
  9 11  1  0  0  0
 11 12  2  0  0  0
 12 13  1  0  0  0
 13 14  2  0  0  0
 14 15  1  0  0  0
  9 10  2  0  0  0
 20 21  2  0  0  0
 21 17  1  0  0  0
 10  5  1  0  0  0
 15 11  1  0  0  0
  3  4  1  0  0  0
 15 16  1  0  0  0
M  END
> <minimizedAffinity>
-8.19345

$$$$
OCNT-2311179


 21 23  0  0  0  0  0  0  0  0999 V2000
    2.3980   18.5042   19.8029 C   0  0  0  0  0  0  0  0  0  0  0  0
    2.1016   19.7165   19.1561 C   0  0  0  0  0  0  0  0  0  0  0  0
    2.9348   20.8338   19.2913 C   0  0  0  0  0  0  0  0  0  0  0  0
    4.0856   20.7699   20.0752 C   0  0  0  0  0  0  0  0  0  0  0  0
    4.8941   21.9101   20.1867 N   0  0  0  0  0  0  0  0  0  0  0  0
    5.9516   21.8218   20.9209 C   0  0  0  0  0  0  0  0  0  0  0  0
    6.3467   20.6965   21.6006 N   0  0  0  0  0  0  0  0  0  0  0  0
    7.5568   20.7035   22.3958 C   0  0  0  0  0  0  0  0  0  0  0  0
    5.6101   19.5215   21.5420 C   0  0  0  0  0  0  0  0  0  0  0  0
    5.9260   18.4862   22.1222 O   0  0  0  0  0  0  0  0  0  0  0  0
    4.3869   19.5705   20.7184 C   0  0  0  0  0  0  0  0  0  0  0  0
    3.5587   18.4471   20.5899 C   0  0  0  0  0  0  0  0  0  0  0  0
    0.8112   15.0953   20.3956 C   0  0  0  0  0  0  0  0  0  0  0  0
   -0.1614   15.0860   19.3876 C   0  0  0  0  0  0  0  0  0  0  0  0
   -0.2997   16.1731   18.5263 C   0  0  0  0  0  0  0  0  0  0  0  0
    0.5332   17.2847   18.6612 C   0  0  0  0  0  0  0  0  0  0  0  0
    1.5190   17.3311   19.6585 C   0  0  0  0  0  0  0  0  0  0  0  0
    1.6417   16.2236   20.5176 C   0  0  0  0  0  0  0  0  0  0  0  0
    2.4248   13.8262   21.8595 C   0  0  0  0  0  0  0  0  0  0  0  0
    0.9854   13.9252   21.3479 C   0  0  0  0  0  0  0  0  0  0  0  0
   -0.0043   13.9963   22.5134 C   0  0  0  0  0  0  0  0  0  0  0  0
 19 20  1  0  0  0
 20 21  1  0  0  0
 20 13  1  0  0  0
 13 14  2  0  0  0
 14 15  1  0  0  0
 15 16  2  0  0  0
 16 17  1  0  0  0
 17  1  1  0  0  0
  1  2  1  0  0  0
  2  3  2  0  0  0
  3  4  1  0  0  0
  4  5  1  0  0  0
  5  6  2  0  0  0
  6  7  1  0  0  0
  7  8  1  0  0  0
  7  9  1  0  0  0
  9 10  2  0  0  0
  9 11  1  0  0  0
 11 12  1  0  0  0
 17 18  2  0  0  0
 18 13  1  0  0  0
 12  1  2  0  0  0
 11  4  2  0  0  0
M  END
> <minimizedAffinity>
-11.85298

$$$$
OCNT-2311187


 26 28  0  0  0  0  0  0  0  0999 V2000
    3.5318   16.0144   21.3230 C   0  0  0  0  0  0  0  0  0  0  0  0
    4.3100   17.1900   21.9452 C   0  0  0  0  0  0  0  0  0  0  0  0
    3.8223   17.4102   23.2824 O   0  0  0  0  0  0  0  0  0  0  0  0
    4.2819   18.2058   23.6062 H   0  0  0  0  0  0  0  0  0  0  0  0
    4.1790   18.4516   21.1067 C   0  0  0  0  0  0  0  0  0  0  0  0
    3.1177   18.5458   20.1840 C   0  0  0  0  0  0  0  0  0  0  0  0
    2.9548   19.6750   19.3904 C   0  0  0  0  0  0  0  0  0  0  0  0
    3.8568   20.7279   19.4946 C   0  0  0  0  0  0  0  0  0  0  0  0
    4.9401   20.6633   20.3815 C   0  0  0  0  0  0  0  0  0  0  0  0
    5.8453   21.7352   20.4515 C   0  0  0  0  0  0  0  0  0  0  0  0
    6.9410   21.6960   21.3103 C   0  0  0  0  0  0  0  0  0  0  0  0
    7.1467   20.5809   22.1092 C   0  0  0  0  0  0  0  0  0  0  0  0
    6.2530   19.5076   22.0541 C   0  0  0  0  0  0  0  0  0  0  0  0
    5.1242   19.5170   21.1989 C   0  0  0  0  0  0  0  0  0  0  0  0
    2.2703   15.8298   22.0635 N   0  0  0  0  0  0  0  0  0  0  0  0
    1.7824   16.6872   22.3290 H   0  0  0  0  0  0  0  0  0  0  0  0
    1.2789   14.5358   21.6955 S   0  0  0  0  0  0  0  0  0  0  0  0
    2.1265   13.3975   21.4150 O   0  0  0  0  0  0  0  0  0  0  0  0
    0.2563   14.4903   22.7167 O   0  0  0  0  0  0  0  0  0  0  0  0
   -0.0895   18.2768   18.2658 C   0  0  0  0  0  0  0  0  0  0  0  0
   -0.1058   16.8281   18.6560 C   0  0  0  0  0  0  0  0  0  0  0  0
   -0.6892   15.8723   17.8126 C   0  0  0  0  0  0  0  0  0  0  0  0
   -0.6919   14.5193   18.1613 C   0  0  0  0  0  0  0  0  0  0  0  0
   -0.0967   14.1026   19.3504 C   0  0  0  0  0  0  0  0  0  0  0  0
    0.5120   15.0485   20.1788 C   0  0  0  0  0  0  0  0  0  0  0  0
    0.5055   16.4070   19.8429 C   0  0  0  0  0  0  0  0  0  0  0  0
 20 21  1  0  0  0
 21 22  1  0  0  0
 22 23  2  0  0  0
 23 24  1  0  0  0
 24 25  2  0  0  0
 25 17  1  0  0  0
 17 18  2  0  0  0
 17 19  2  0  0  0
 17 15  1  0  0  0
 15  1  1  0  0  0
  1  2  1  0  0  0
  2  3  1  0  0  0
  2  5  1  0  0  0
  5  6  2  0  0  0
  6  7  1  0  0  0
  7  8  2  0  0  0
  8  9  1  0  0  0
  9 10  2  0  0  0
 10 11  1  0  0  0
 11 12  2  0  0  0
 12 13  1  0  0  0
 13 14  2  0  0  0
 25 26  1  0  0  0
 26 21  2  0  0  0
 14  5  1  0  0  0
 14  9  1  0  0  0
 15 16  1  0  0  0
  3  4  1  0  0  0
M  END
> <minimizedAffinity>
-11.85723

$$$$
OCNT-2311203


 31 34  0  0  0  0  0  0  0  0999 V2000
    0.8661   17.1864   19.5028 C   0  0  0  0  0  0  0  0  0  0  0  0
   -0.2589   17.5340   19.1685 O   0  0  0  0  0  0  0  0  0  0  0  0
    1.2333   15.8704   19.7092 N   0  0  0  0  0  0  0  0  0  0  0  0
    2.0597   15.6992   20.2665 H   0  0  0  0  0  0  0  0  0  0  0  0
    5.9894   20.8034   21.1767 N   0  0  0  0  0  0  0  0  0  0  0  0
    6.0957   19.5734   21.8054 C   0  0  0  0  0  0  0  0  0  0  0  0
    7.0153   19.2556   22.5582 O   0  0  0  0  0  0  0  0  0  0  0  0
    5.0985   18.6706   21.5650 N   0  0  0  0  0  0  0  0  0  0  0  0
    3.9960   18.9259   20.7549 C   0  0  0  0  0  0  0  0  0  0  0  0
    3.0285   17.9375   20.5629 C   0  0  0  0  0  0  0  0  0  0  0  0
    1.9202   18.2071   19.7474 C   0  0  0  0  0  0  0  0  0  0  0  0
    1.8017   19.4526   19.1152 C   0  0  0  0  0  0  0  0  0  0  0  0
    2.7713   20.4372   19.3178 C   0  0  0  0  0  0  0  0  0  0  0  0
    3.8674   20.1685   20.1432 C   0  0  0  0  0  0  0  0  0  0  0  0
    4.9100   21.1861   20.3825 C   0  0  0  0  0  0  0  0  0  0  0  0
    4.7774   22.3035   19.8891 O   0  0  0  0  0  0  0  0  0  0  0  0
    5.2136   17.7769   22.0263 H   0  0  0  0  0  0  0  0  0  0  0  0
    8.0525   21.8411   20.3097 C   0  0  0  0  0  0  0  0  0  0  0  0
    7.0284   21.7936   21.4348 C   0  0  0  0  0  0  0  0  0  0  0  0
    0.2323   14.8191   19.6356 C   0  0  0  0  0  0  0  0  0  0  0  0
    0.2955   13.8816   20.8475 C   0  0  0  0  0  0  0  0  0  0  0  0
    1.6769   13.2823   21.0503 C   0  0  0  0  0  0  0  0  0  0  0  0
    2.3983   14.3511   21.8393 C   0  0  0  0  0  0  0  0  0  0  0  0
    1.4114   15.0210   22.6287 O   0  0  0  0  0  0  0  0  0  0  0  0
    0.0972   14.6737   22.1481 C   0  0  0  0  0  0  0  0  0  0  0  0
   -0.6791   13.8859   23.1908 C   0  0  0  0  0  0  0  0  0  0  0  0
   -1.1005   14.5319   24.3655 C   0  0  0  0  0  0  0  0  0  0  0  0
   -1.8268   13.8436   25.3393 C   0  0  0  0  0  0  0  0  0  0  0  0
   -2.1423   12.5004   25.1541 C   0  0  0  0  0  0  0  0  0  0  0  0
   -1.7265   11.8433   23.9987 C   0  0  0  0  0  0  0  0  0  0  0  0
   -0.9990   12.5305   23.0244 C   0  0  0  0  0  0  0  0  0  0  0  0
 18 19  1  0  0  0
 19  5  1  0  0  0
  5  6  1  0  0  0
  6  7  2  0  0  0
  6  8  1  0  0  0
  8  9  1  0  0  0
  9 10  1  0  0  0
 10 11  2  0  0  0
 11  1  1  0  0  0
  1  2  2  0  0  0
  1  3  1  0  0  0
  3 20  1  0  0  0
 20 21  1  0  0  0
 21 22  1  0  0  0
 22 23  1  0  0  0
 23 24  1  0  0  0
 24 25  1  0  0  0
 25 26  1  0  0  0
 26 27  2  0  0  0
 27 28  1  0  0  0
 28 29  2  0  0  0
 29 30  1  0  0  0
 30 31  2  0  0  0
 11 12  1  0  0  0
 12 13  2  0  0  0
 13 14  1  0  0  0
 14 15  1  0  0  0
 15 16  2  0  0  0
 15  5  1  0  0  0
 14  9  2  0  0  0
 25 21  1  0  0  0
 31 26  1  0  0  0
  8 17  1  0  0  0
  3  4  1  0  0  0
M  END
> <minimizedAffinity>
-8.11056

$$$$
OCNT-2311204


 23 26  0  0  0  0  0  0  0  0999 V2000
   -1.8307   17.7945   17.6248 O   0  0  0  0  0  0  0  0  0  0  0  0
   -0.8639   17.1239   17.9829 C   0  0  0  0  0  0  0  0  0  0  0  0
    0.2900   17.7153   18.5109 N   0  0  0  0  0  0  0  0  0  0  0  0
    0.9815   17.1217   19.6618 C   0  0  0  0  0  0  0  0  0  0  0  0
    2.4162   17.6488   19.8127 C   0  0  0  0  0  0  0  0  0  0  0  0
    2.4487   19.1279   19.8177 N   0  0  0  0  0  0  0  0  0  0  0  0
    1.7512   19.7358   18.6660 C   0  0  0  0  0  0  0  0  0  0  0  0
    0.3264   19.1771   18.5106 C   0  0  0  0  0  0  0  0  0  0  0  0
    3.6280   19.6846   20.2481 C   0  0  0  0  0  0  0  0  0  0  0  0
    4.4505   19.0736   21.0748 N   0  0  0  0  0  0  0  0  0  0  0  0
    5.5504   19.8589   21.3675 C   0  0  0  0  0  0  0  0  0  0  0  0
    6.6220   19.5009   22.2109 C   0  0  0  0  0  0  0  0  0  0  0  0
    7.6745   20.3987   22.4180 C   0  0  0  0  0  0  0  0  0  0  0  0
    7.6698   21.6436   21.7970 C   0  0  0  0  0  0  0  0  0  0  0  0
    6.6174   22.0211   20.9569 C   0  0  0  0  0  0  0  0  0  0  0  0
    5.5669   21.1097   20.7573 C   0  0  0  0  0  0  0  0  0  0  0  0
    4.1521   21.2754   19.8019 S   0  0  0  0  0  0  0  0  0  0  0  0
   -0.8750   15.6688   17.8246 C   0  0  0  0  0  0  0  0  0  0  0  0
   -1.3442   14.9398   16.7423 C   0  0  0  0  0  0  0  0  0  0  0  0
   -1.2120   13.6042   17.0214 N   0  0  0  0  0  0  0  0  0  0  0  0
   -0.6908   13.4518   18.2776 C   0  0  0  0  0  0  0  0  0  0  0  0
   -0.4903   14.7070   18.8059 C   0  0  0  0  0  0  0  0  0  0  0  0
   -1.4822   12.8473   16.4057 H   0  0  0  0  0  0  0  0  0  0  0  0
  1  2  2  0  0  0
  2 18  1  0  0  0
 18 19  2  0  0  0
 19 20  1  0  0  0
 20 21  1  0  0  0
 21 22  2  0  0  0
  2  3  1  0  0  0
  3  4  1  0  0  0
  4  5  1  0  0  0
  5  6  1  0  0  0
  6  9  1  0  0  0
  9 10  2  0  0  0
 10 11  1  0  0  0
 11 12  2  0  0  0
 12 13  1  0  0  0
 13 14  2  0  0  0
 14 15  1  0  0  0
 15 16  2  0  0  0
 16 17  1  0  0  0
  6  7  1  0  0  0
  7  8  1  0  0  0
 22 18  1  0  0  0
  8  3  1  0  0  0
 17  9  1  0  0  0
 16 11  1  0  0  0
 20 23  1  0  0  0
M  END
> <minimizedAffinity>
-6.95269

$$$$
OCNT-2311205


 26 29  0  0  0  0  0  0  0  0999 V2000
    0.9973   17.4291   19.2740 C   0  0  0  0  0  0  0  0  0  0  0  0
    0.4110   18.3763   18.4535 C   0  0  0  0  0  0  0  0  0  0  0  0
    1.3257   19.8228   18.4534 S   0  0  0  0  0  0  0  0  0  0  0  0
    2.4501   19.1227   19.5546 C   0  0  0  0  0  0  0  0  0  0  0  0
    2.1597   17.8829   19.8982 N   0  0  0  0  0  0  0  0  0  0  0  0
    3.6262   19.8601   20.0645 C   0  0  0  0  0  0  0  0  0  0  0  0
    3.7711   21.2271   19.7089 C   0  0  0  0  0  0  0  0  0  0  0  0
    4.8550   21.9959   20.1504 C   0  0  0  0  0  0  0  0  0  0  0  0
    5.7874   21.3793   20.9503 C   0  0  0  0  0  0  0  0  0  0  0  0
    6.8997   21.9600   21.4721 O   0  0  0  0  0  0  0  0  0  0  0  0
    7.4686   20.8520   22.1997 C   0  0  0  0  0  0  0  0  0  0  0  0
    6.6900   19.6410   22.1009 O   0  0  0  0  0  0  0  0  0  0  0  0
    5.6665   20.0586   21.3073 C   0  0  0  0  0  0  0  0  0  0  0  0
    4.6078   19.2768   20.8860 C   0  0  0  0  0  0  0  0  0  0  0  0
    1.2205   15.3206   20.4344 N   0  0  0  0  0  0  0  0  0  0  0  0
    0.4961   16.0689   19.5303 C   0  0  0  0  0  0  0  0  0  0  0  0
   -0.5138   15.6187   18.9949 O   0  0  0  0  0  0  0  0  0  0  0  0
    1.9069   15.7676   21.0286 H   0  0  0  0  0  0  0  0  0  0  0  0
    0.7400   14.0168   20.8434 C   0  0  0  0  0  0  0  0  0  0  0  0
   -0.7627   13.5656   24.0081 C   0  0  0  0  0  0  0  0  0  0  0  0
    0.1763   14.4020   24.3970 N   0  0  0  0  0  0  0  0  0  0  0  0
    0.9067   14.7185   23.2715 N   0  0  0  0  0  0  0  0  0  0  0  0
    0.3609   14.0486   22.2754 C   0  0  0  0  0  0  0  0  0  0  0  0
   -0.7117   13.2922   22.6666 O   0  0  0  0  0  0  0  0  0  0  0  0
   -2.4542   11.7557   24.0326 C   0  0  0  0  0  0  0  0  0  0  0  0
   -1.8281   12.9095   24.7973 C   0  0  0  0  0  0  0  0  0  0  0  0
 25 26  1  0  0  0
 26 20  1  0  0  0
 20 21  2  0  0  0
 21 22  1  0  0  0
 22 23  2  0  0  0
 23 19  1  0  0  0
 19 15  1  0  0  0
 15 16  1  0  0  0
 16 17  2  0  0  0
 16  1  1  0  0  0
  1  2  2  0  0  0
  2  3  1  0  0  0
  3  4  1  0  0  0
  4  6  1  0  0  0
  6  7  1  0  0  0
  7  8  2  0  0  0
  8  9  1  0  0  0
  9 10  1  0  0  0
 10 11  1  0  0  0
 11 12  1  0  0  0
 12 13  1  0  0  0
 13 14  1  0  0  0
  4  5  2  0  0  0
 23 24  1  0  0  0
 24 20  1  0  0  0
  5  1  1  0  0  0
 14  6  2  0  0  0
 13  9  2  0  0  0
 15 18  1  0  0  0
M  END
> <minimizedAffinity>
-8.10769

$$$$
OCNT-2311206


 25 28  0  0  0  0  0  0  0  0999 V2000
    4.1027   18.1823   21.5681 C   0  0  0  0  0  0  0  0  0  0  0  0
    3.6381   16.9108   21.9088 C   0  0  0  0  0  0  0  0  0  0  0  0
    2.6007   16.3373   21.1691 C   0  0  0  0  0  0  0  0  0  0  0  0
    2.0183   17.0180   20.0839 C   0  0  0  0  0  0  0  0  0  0  0  0
    2.5139   18.2940   19.7592 C   0  0  0  0  0  0  0  0  0  0  0  0
    3.5519   18.8770   20.4915 C   0  0  0  0  0  0  0  0  0  0  0  0
    0.9298   16.4058   19.3049 C   0  0  0  0  0  0  0  0  0  0  0  0
    0.5083   15.0837   19.5543 C   0  0  0  0  0  0  0  0  0  0  0  0
   -0.5315   14.4871   18.8157 C   0  0  0  0  0  0  0  0  0  0  0  0
   -1.1794   15.1983   17.8071 C   0  0  0  0  0  0  0  0  0  0  0  0
   -0.7625   16.4894   17.5682 C   0  0  0  0  0  0  0  0  0  0  0  0
    0.2573   17.0767   18.2882 C   0  0  0  0  0  0  0  0  0  0  0  0
    0.4848   18.3598   17.8787 O   0  0  0  0  0  0  0  0  0  0  0  0
   -0.4947   18.5020   16.8328 C   0  0  0  0  0  0  0  0  0  0  0  0
   -1.2889   17.3190   16.6272 O   0  0  0  0  0  0  0  0  0  0  0  0
    5.0977   18.6734   23.9156 O   0  0  0  0  0  0  0  0  0  0  0  0
    5.4157   18.9028   22.5222 S   0  0  0  0  0  0  0  0  0  0  0  0
    6.6772   18.4702   21.9618 O   0  0  0  0  0  0  0  0  0  0  0  0
    5.2345   20.5672   22.2004 N   0  0  0  0  0  0  0  0  0  0  0  0
    4.9879   20.9542   20.7764 C   0  0  0  0  0  0  0  0  0  0  0  0
    6.2927   21.1124   19.9698 C   0  0  0  0  0  0  0  0  0  0  0  0
    7.2725   22.0128   20.6048 N   0  0  0  0  0  0  0  0  0  0  0  0
    7.5434   21.5362   21.9744 C   0  0  0  0  0  0  0  0  0  0  0  0
    6.2695   21.4419   22.8317 C   0  0  0  0  0  0  0  0  0  0  0  0
    6.8668   22.9470   20.6612 H   0  0  0  0  0  0  0  0  0  0  0  0
 16 17  2  0  0  0
 17 18  2  0  0  0
 17  1  1  0  0  0
  1  2  1  0  0  0
  2  3  2  0  0  0
  3  4  1  0  0  0
  4  7  1  0  0  0
  7  8  2  0  0  0
  8  9  1  0  0  0
  9 10  2  0  0  0
 10 11  1  0  0  0
 11 12  2  0  0  0
 12 13  1  0  0  0
 13 14  1  0  0  0
 14 15  1  0  0  0
  4  5  2  0  0  0
  5  6  1  0  0  0
 17 19  1  0  0  0
 19 20  1  0  0  0
 20 21  1  0  0  0
 21 22  1  0  0  0
 22 23  1  0  0  0
 23 24  1  0  0  0
  6  1  2  0  0  0
 24 19  1  0  0  0
 12  7  1  0  0  0
 15 11  1  0  0  0
 22 25  1  0  0  0
M  END
> <minimizedAffinity>
-8.25358

$$$$
OCNT-2311212


 24 26  0  0  0  0  0  0  0  0999 V2000
    1.2293   17.9564   19.4137 N   0  0  0  0  0  0  0  0  0  0  0  0
    1.3442   19.3260   19.5044 C   0  0  0  0  0  0  0  0  0  0  0  0
    0.3884   20.0775   19.3339 O   0  0  0  0  0  0  0  0  0  0  0  0
    2.0329   17.3941   19.6561 H   0  0  0  0  0  0  0  0  0  0  0  0
    2.6616   19.8213   19.8385 C   0  0  0  0  0  0  0  0  0  0  0  0
    3.3334   21.0065   19.5089 C   0  0  0  0  0  0  0  0  0  0  0  0
    4.5725   20.9054   20.1275 C   0  0  0  0  0  0  0  0  0  0  0  0
    4.6725   19.7525   20.7982 C   0  0  0  0  0  0  0  0  0  0  0  0
    3.5181   19.0683   20.6487 N   0  0  0  0  0  0  0  0  0  0  0  0
    6.1287   19.5500   21.5743 S   0  0  0  0  0  0  0  0  0  0  0  0
    6.6375   21.0863   20.9761 C   0  0  0  0  0  0  0  0  0  0  0  0
    8.2043   21.6667   21.3786 Cl  0  0  0  0  0  0  0  0  0  0  0  0
    5.6917   21.7312   20.1953 C   0  0  0  0  0  0  0  0  0  0  0  0
    3.2818   18.1663   21.0443 H   0  0  0  0  0  0  0  0  0  0  0  0
   -0.0943   16.7988   17.6634 C   0  0  0  0  0  0  0  0  0  0  0  0
   -0.9289   15.5223   17.5273 C   0  0  0  0  0  0  0  0  0  0  0  0
   -0.3510   14.3811   18.3660 C   0  0  0  0  0  0  0  0  0  0  0  0
    0.2807   14.8501   19.6763 C   0  0  0  0  0  0  0  0  0  0  0  0
   -0.3042   16.1783   20.1417 C   0  0  0  0  0  0  0  0  0  0  0  0
   -0.0468   17.3071   19.1196 C   0  0  0  0  0  0  0  0  0  0  0  0
   -2.1672   18.7235   17.1632 C   0  0  0  0  0  0  0  0  0  0  0  0
   -0.6410   18.0754   16.5144 S   0  0  0  0  0  0  0  0  0  0  0  0
   -0.9588   17.4198   15.2581 O   0  0  0  0  0  0  0  0  0  0  0  0
    0.3364   19.1470   16.5324 O   0  0  0  0  0  0  0  0  0  0  0  0
 21 22  1  0  0  0
 22 23  2  0  0  0
 22 24  2  0  0  0
 22 15  1  0  0  0
 15 16  1  0  0  0
 16 17  1  0  0  0
 17 18  1  0  0  0
 18 19  1  0  0  0
 19 20  1  0  0  0
 20  1  1  0  0  0
  1  2  1  0  0  0
  2  3  2  0  0  0
  2  5  1  0  0  0
  5  6  2  0  0  0
  6  7  1  0  0  0
  7  8  2  0  0  0
  8  9  1  0  0  0
  8 10  1  0  0  0
 10 11  1  0  0  0
 11 12  1  0  0  0
 11 13  2  0  0  0
 20 15  1  0  0  0
  9  5  1  0  0  0
 13  7  1  0  0  0
  1  4  1  0  0  0
  9 14  1  0  0  0
M  END
> <minimizedAffinity>
-6.49339

$$$$
OCNT-2311219


 25 27  0  0  0  0  0  0  0  0999 V2000
    3.6039   18.0584   20.7673 C   0  0  0  0  0  0  0  0  0  0  0  0
    2.6996   18.5752   19.9417 N   0  0  0  0  0  0  0  0  0  0  0  0
    1.7422   17.6424   19.7995 N   0  0  0  0  0  0  0  0  0  0  0  0
    2.0375   16.5168   20.5390 C   0  0  0  0  0  0  0  0  0  0  0  0
    3.2204   16.7705   21.1913 C   0  0  0  0  0  0  0  0  0  0  0  0
    0.6303   17.8512   18.9326 C   0  0  0  0  0  0  0  0  0  0  0  0
    0.4819   19.1077   18.3107 C   0  0  0  0  0  0  0  0  0  0  0  0
   -0.6190   19.3721   17.4911 C   0  0  0  0  0  0  0  0  0  0  0  0
   -1.5769   18.3882   17.2798 C   0  0  0  0  0  0  0  0  0  0  0  0
   -2.9306   18.7157   16.2719 Cl  0  0  0  0  0  0  0  0  0  0  0  0
   -1.4383   17.1357   17.8711 C   0  0  0  0  0  0  0  0  0  0  0  0
   -0.3344   16.8478   18.6970 C   0  0  0  0  0  0  0  0  0  0  0  0
   -0.2345   15.4857   19.1565 C   0  0  0  0  0  0  0  0  0  0  0  0
   -0.2350   14.3520   19.4080 N   0  0  0  0  0  0  0  0  0  0  0  0
    5.2194   18.7260   22.4895 C   0  0  0  0  0  0  0  0  0  0  0  0
    4.6197   18.3351   23.4869 O   0  0  0  0  0  0  0  0  0  0  0  0
    4.7563   18.6874   21.1827 N   0  0  0  0  0  0  0  0  0  0  0  0
    5.3243   19.1114   20.4540 H   0  0  0  0  0  0  0  0  0  0  0  0
    7.7446   18.4517   22.3647 C   0  0  0  0  0  0  0  0  0  0  0  0
    6.5805   19.4096   22.6137 C   0  0  0  0  0  0  0  0  0  0  0  0
    6.6246   20.5854   21.7615 N   0  0  0  0  0  0  0  0  0  0  0  0
    7.6318   21.0358   20.9671 C   0  0  0  0  0  0  0  0  0  0  0  0
    7.2357   22.1130   20.3287 N   0  0  0  0  0  0  0  0  0  0  0  0
    5.9462   22.2671   20.7447 C   0  0  0  0  0  0  0  0  0  0  0  0
    5.5090   21.3356   21.5982 N   0  0  0  0  0  0  0  0  0  0  0  0
 19 20  1  0  0  0
 20 15  1  0  0  0
 15 16  2  0  0  0
 15 17  1  0  0  0
 17  1  1  0  0  0
  1  2  2  0  0  0
  2  3  1  0  0  0
  3  6  1  0  0  0
  6  7  1  0  0  0
  7  8  2  0  0  0
  8  9  1  0  0  0
  9 10  1  0  0  0
  9 11  2  0  0  0
 11 12  1  0  0  0
 12 13  1  0  0  0
 13 14  3  0  0  0
  3  4  1  0  0  0
  4  5  2  0  0  0
 20 21  1  0  0  0
 21 22  1  0  0  0
 22 23  2  0  0  0
 23 24  1  0  0  0
 24 25  2  0  0  0
  5  1  1  0  0  0
 25 21  1  0  0  0
 12  6  2  0  0  0
 17 18  1  0  0  0
M  END
> <minimizedAffinity>
-6.69186

$$$$
OCNT-2311222


 25 27  0  0  0  0  0  0  0  0999 V2000
    4.4483   15.9662   21.6674 O   0  0  0  0  0  0  0  0  0  0  0  0
    3.9565   17.0665   21.4487 C   0  0  0  0  0  0  0  0  0  0  0  0
    2.6774   17.3038   20.9874 N   0  0  0  0  0  0  0  0  0  0  0  0
    2.3622   18.2614   21.0397 H   0  0  0  0  0  0  0  0  0  0  0  0
    4.7088   18.2809   21.7399 C   0  0  0  0  0  0  0  0  0  0  0  0
    4.6901   19.5280   21.1237 C   0  0  0  0  0  0  0  0  0  0  0  0
    3.9829   20.0828   19.9292 C   0  0  0  0  0  0  0  0  0  0  0  0
    4.0840   21.6101   19.8508 C   0  0  0  0  0  0  0  0  0  0  0  0
    5.5134   22.0840   20.1099 C   0  0  0  0  0  0  0  0  0  0  0  0
    5.9760   21.6564   21.5002 C   0  0  0  0  0  0  0  0  0  0  0  0
    5.6369   20.2738   21.7827 N   0  0  0  0  0  0  0  0  0  0  0  0
    6.2524   19.6228   22.7784 N   0  0  0  0  0  0  0  0  0  0  0  0
    5.7162   18.4023   22.7280 C   0  0  0  0  0  0  0  0  0  0  0  0
    1.7222   16.3583   20.5638 C   0  0  0  0  0  0  0  0  0  0  0  0
    1.5325   15.1168   21.1668 C   0  0  0  0  0  0  0  0  0  0  0  0
    0.5699   14.2341   20.6703 C   0  0  0  0  0  0  0  0  0  0  0  0
   -0.2134   14.5822   19.5676 C   0  0  0  0  0  0  0  0  0  0  0  0
   -0.0368   15.8194   18.9554 C   0  0  0  0  0  0  0  0  0  0  0  0
    0.9349   16.6958   19.4548 C   0  0  0  0  0  0  0  0  0  0  0  0
   -0.7203   16.2991   17.8744 O   0  0  0  0  0  0  0  0  0  0  0  0
   -1.6142   17.4040   18.0525 C   0  0  0  0  0  0  0  0  0  0  0  0
   -1.2555   18.6129   17.2004 C   0  0  0  0  0  0  0  0  0  0  0  0
   -0.5981   18.2147   16.0837 F   0  0  0  0  0  0  0  0  0  0  0  0
   -0.4459   19.4770   17.8487 F   0  0  0  0  0  0  0  0  0  0  0  0
   -2.3541   19.2886   16.7983 F   0  0  0  0  0  0  0  0  0  0  0  0
  1  2  2  0  0  0
  2  3  1  0  0  0
  3 14  1  0  0  0
 14 15  2  0  0  0
 15 16  1  0  0  0
 16 17  2  0  0  0
 17 18  1  0  0  0
 18 20  1  0  0  0
 20 21  1  0  0  0
 21 22  1  0  0  0
 22 23  1  0  0  0
 22 24  1  0  0  0
 22 25  1  0  0  0
 18 19  2  0  0  0
  2  5  1  0  0  0
  5  6  2  0  0  0
  6  7  1  0  0  0
  7  8  1  0  0  0
  8  9  1  0  0  0
  9 10  1  0  0  0
 10 11  1  0  0  0
 11 12  1  0  0  0
 12 13  2  0  0  0
 19 14  1  0  0  0
 13  5  1  0  0  0
 11  6  1  0  0  0
  3  4  1  0  0  0
M  END
> <minimizedAffinity>
-11.40744

$$$$
OCNT-2311225


 25 28  0  0  0  0  0  0  0  0999 V2000
    2.6161   14.4180   22.5804 O   0  0  0  0  0  0  0  0  0  0  0  0
    2.5085   15.1650   21.6144 C   0  0  0  0  0  0  0  0  0  0  0  0
    3.3115   16.2749   21.4124 N   0  0  0  0  0  0  0  0  0  0  0  0
    4.3221   16.6235   22.4104 C   0  0  0  0  0  0  0  0  0  0  0  0
    4.4334   18.1431   22.6406 C   0  0  0  0  0  0  0  0  0  0  0  0
    4.5515   18.9015   21.3790 N   0  0  0  0  0  0  0  0  0  0  0  0
    4.3938   18.1420   20.1295 C   0  0  0  0  0  0  0  0  0  0  0  0
    3.2162   17.1575   20.2447 C   0  0  0  0  0  0  0  0  0  0  0  0
    5.4555   19.9610   21.3345 C   0  0  0  0  0  0  0  0  0  0  0  0
    5.2999   21.0407   20.4530 C   0  0  0  0  0  0  0  0  0  0  0  0
    6.1528   22.0962   20.3640 N   0  0  0  0  0  0  0  0  0  0  0  0
    7.2121   22.0355   21.1924 C   0  0  0  0  0  0  0  0  0  0  0  0
    7.4036   20.9763   22.0582 C   0  0  0  0  0  0  0  0  0  0  0  0
    6.5432   19.9331   22.1414 N   0  0  0  0  0  0  0  0  0  0  0  0
    1.4716   14.8908   20.5800 C   0  0  0  0  0  0  0  0  0  0  0  0
    0.0862   14.4779   21.0011 C   0  0  0  0  0  0  0  0  0  0  0  0
    0.3002   15.8510   20.4100 C   0  0  0  0  0  0  0  0  0  0  0  0
   -0.2540   16.1736   19.0329 C   0  0  0  0  0  0  0  0  0  0  0  0
   -0.6447   15.1539   18.1471 C   0  0  0  0  0  0  0  0  0  0  0  0
   -0.5452   13.8707   18.5281 F   0  0  0  0  0  0  0  0  0  0  0  0
   -1.1430   15.4121   16.8693 C   0  0  0  0  0  0  0  0  0  0  0  0
   -1.2587   16.7231   16.4246 C   0  0  0  0  0  0  0  0  0  0  0  0
   -0.8670   17.7640   17.2622 C   0  0  0  0  0  0  0  0  0  0  0  0
   -0.3671   17.4906   18.5436 C   0  0  0  0  0  0  0  0  0  0  0  0
    0.1242   18.8440   19.5055 Cl  0  0  0  0  0  0  0  0  0  0  0  0
  1  2  2  0  0  0
  2 15  1  0  0  0
 15 16  1  0  0  0
 16 17  1  0  0  0
 17 18  1  0  0  0
 18 19  2  0  0  0
 19 20  1  0  0  0
 19 21  1  0  0  0
 21 22  2  0  0  0
 22 23  1  0  0  0
 23 24  2  0  0  0
 24 25  1  0  0  0
  2  3  1  0  0  0
  3  4  1  0  0  0
  4  5  1  0  0  0
  5  6  1  0  0  0
  6  9  1  0  0  0
  9 10  2  0  0  0
 10 11  1  0  0  0
 11 12  2  0  0  0
 12 13  1  0  0  0
 13 14  2  0  0  0
  6  7  1  0  0  0
  7  8  1  0  0  0
 17 15  1  0  0  0
 24 18  1  0  0  0
  8  3  1  0  0  0
 14  9  1  0  0  0
M  END
> <minimizedAffinity>
-7.76884

$$$$
OCNT-2311235


 25 28  0  0  0  0  0  0  0  0999 V2000
    3.0936   18.4300   20.4737 O   0  0  0  0  0  0  0  0  0  0  0  0
    3.8920   17.9238   21.2570 C   0  0  0  0  0  0  0  0  0  0  0  0
    3.7734   16.6448   21.7720 N   0  0  0  0  0  0  0  0  0  0  0  0
    4.4513   16.3305   22.4502 H   0  0  0  0  0  0  0  0  0  0  0  0
    5.0560   18.6502   21.7313 C   0  0  0  0  0  0  0  0  0  0  0  0
    6.0160   18.3223   22.6740 C   0  0  0  0  0  0  0  0  0  0  0  0
    6.9703   19.2968   22.7959 N   0  0  0  0  0  0  0  0  0  0  0  0
    6.6307   20.2267   21.9328 C   0  0  0  0  0  0  0  0  0  0  0  0
    7.3425   21.5115   21.6770 C   0  0  0  0  0  0  0  0  0  0  0  0
    6.9364   22.1254   20.3376 C   0  0  0  0  0  0  0  0  0  0  0  0
    5.4162   22.1212   20.1869 C   0  0  0  0  0  0  0  0  0  0  0  0
    4.8623   20.6957   20.2373 C   0  0  0  0  0  0  0  0  0  0  0  0
    5.4734   19.8847   21.2763 N   0  0  0  0  0  0  0  0  0  0  0  0
    2.7615   15.7490   21.4749 C   0  0  0  0  0  0  0  0  0  0  0  0
    1.7794   15.8378   20.5192 C   0  0  0  0  0  0  0  0  0  0  0  0
    1.0210   14.7060   20.6355 N   0  0  0  0  0  0  0  0  0  0  0  0
    1.4630   13.8653   21.5963 N   0  0  0  0  0  0  0  0  0  0  0  0
    2.5151   14.5094   22.1088 C   0  0  0  0  0  0  0  0  0  0  0  0
   -0.1290   14.3447   19.8180 C   0  0  0  0  0  0  0  0  0  0  0  0
   -0.4581   15.4204   18.8157 C   0  0  0  0  0  0  0  0  0  0  0  0
   -0.6677   15.1101   17.4687 C   0  0  0  0  0  0  0  0  0  0  0  0
   -0.9673   16.1388   16.5884 C   0  0  0  0  0  0  0  0  0  0  0  0
   -1.0705   17.4340   16.9525 N   0  0  0  0  0  0  0  0  0  0  0  0
   -0.8584   17.7159   18.2554 C   0  0  0  0  0  0  0  0  0  0  0  0
   -0.5557   16.7590   19.2109 C   0  0  0  0  0  0  0  0  0  0  0  0
  1  2  2  0  0  0
  2  3  1  0  0  0
  3 14  1  0  0  0
 14 15  2  0  0  0
 15 16  1  0  0  0
 16 19  1  0  0  0
 19 20  1  0  0  0
 20 21  2  0  0  0
 21 22  1  0  0  0
 22 23  2  0  0  0
 23 24  1  0  0  0
 24 25  2  0  0  0
 16 17  1  0  0  0
 17 18  2  0  0  0
  2  5  1  0  0  0
  5  6  2  0  0  0
  6  7  1  0  0  0
  7  8  2  0  0  0
  8  9  1  0  0  0
  9 10  1  0  0  0
 10 11  1  0  0  0
 11 12  1  0  0  0
 12 13  1  0  0  0
 18 14  1  0  0  0
 13  5  1  0  0  0
 25 20  1  0  0  0
 13  8  1  0  0  0
  3  4  1  0  0  0
M  END
> <minimizedAffinity>
-8.81043

$$$$
OCNT-2311250


 24 27  0  0  0  0  0  0  0  0999 V2000
    2.9512   20.3590   19.1330 O   0  0  0  0  0  0  0  0  0  0  0  0
    2.8734   19.4013   19.8953 C   0  0  0  0  0  0  0  0  0  0  0  0
    1.7184   18.6759   20.0893 N   0  0  0  0  0  0  0  0  0  0  0  0
    1.8313   17.8122   20.6174 H   0  0  0  0  0  0  0  0  0  0  0  0
    0.5495   18.8458   19.2563 C   0  0  0  0  0  0  0  0  0  0  0  0
    0.9140   19.1508   17.8010 C   0  0  0  0  0  0  0  0  0  0  0  0
   -0.2729   18.6598   16.9715 C   0  0  0  0  0  0  0  0  0  0  0  0
   -1.2212   17.9612   17.9478 C   0  0  0  0  0  0  0  0  0  0  0  0
   -0.3546   17.6054   19.1582 C   0  0  0  0  0  0  0  0  0  0  0  0
    0.3890   16.4293   18.8159 O   0  0  0  0  0  0  0  0  0  0  0  0
    0.6845   15.6105   19.8481 C   0  0  0  0  0  0  0  0  0  0  0  0
   -0.0308   14.4651   20.0835 C   0  0  0  0  0  0  0  0  0  0  0  0
    0.5405   13.8880   21.1791 N   0  0  0  0  0  0  0  0  0  0  0  0
    1.5868   14.5785   21.6674 N   0  0  0  0  0  0  0  0  0  0  0  0
    1.6806   15.6292   20.8449 C   0  0  0  0  0  0  0  0  0  0  0  0
    0.2735   13.0273   21.6454 H   0  0  0  0  0  0  0  0  0  0  0  0
    3.9900   18.8936   20.6819 C   0  0  0  0  0  0  0  0  0  0  0  0
    5.0945   19.5887   21.1338 C   0  0  0  0  0  0  0  0  0  0  0  0
    5.8865   18.7140   21.8255 O   0  0  0  0  0  0  0  0  0  0  0  0
    5.2156   17.5343   21.7590 C   0  0  0  0  0  0  0  0  0  0  0  0
    4.0857   17.5665   21.0907 N   0  0  0  0  0  0  0  0  0  0  0  0
    5.4160   21.0886   20.9218 C   0  0  0  0  0  0  0  0  0  0  0  0
    5.5112   21.9821   22.1307 C   0  0  0  0  0  0  0  0  0  0  0  0
    6.7515   21.6263   21.3643 C   0  0  0  0  0  0  0  0  0  0  0  0
  1  2  2  0  0  0
  2  3  1  0  0  0
  3  5  1  0  0  0
  5  6  1  0  0  0
  6  7  1  0  0  0
  7  8  1  0  0  0
  8  9  1  0  0  0
  9 10  1  0  0  0
 10 11  1  0  0  0
 11 12  2  0  0  0
 12 13  1  0  0  0
 13 14  1  0  0  0
 14 15  2  0  0  0
  2 17  1  0  0  0
 17 18  2  0  0  0
 18 22  1  0  0  0
 22 23  1  0  0  0
 23 24  1  0  0  0
 18 19  1  0  0  0
 19 20  1  0  0  0
 20 21  2  0  0  0
  9  5  1  0  0  0
 15 11  1  0  0  0
 21 17  1  0  0  0
 24 22  1  0  0  0
  3  4  1  0  0  0
 13 16  1  0  0  0
M  END
> <minimizedAffinity>
-9.92106

$$$$
OCNT-2311252


 27 30  0  0  0  0  0  0  0  0999 V2000
    2.2143   16.6357   21.5954 N   0  0  0  0  0  0  0  0  0  0  0  0
    2.9042   17.7907   20.9748 C   0  0  0  0  0  0  0  0  0  0  0  0
    4.1906   17.3818   20.2203 C   0  0  0  0  0  0  0  0  0  0  0  0
    5.1662   16.6068   21.0222 N   0  0  0  0  0  0  0  0  0  0  0  0
    4.4554   15.4332   21.5880 C   0  0  0  0  0  0  0  0  0  0  0  0
    3.1312   15.7390   22.3347 C   0  0  0  0  0  0  0  0  0  0  0  0
   -0.4517   18.0041   17.4475 C   0  0  0  0  0  0  0  0  0  0  0  0
    0.3097   18.7399   18.3460 C   0  0  0  0  0  0  0  0  0  0  0  0
    0.9159   18.0899   19.4213 C   0  0  0  0  0  0  0  0  0  0  0  0
    0.7794   16.6915   19.6162 C   0  0  0  0  0  0  0  0  0  0  0  0
    1.3666   15.9699   20.6790 C   0  0  0  0  0  0  0  0  0  0  0  0
    1.1419   14.6565   20.8506 N   0  0  0  0  0  0  0  0  0  0  0  0
    0.3751   14.0498   19.9415 C   0  0  0  0  0  0  0  0  0  0  0  0
   -0.1979   14.6273   18.8839 N   0  0  0  0  0  0  0  0  0  0  0  0
   -0.0052   15.9472   18.7261 C   0  0  0  0  0  0  0  0  0  0  0  0
   -0.5967   16.6239   17.6558 C   0  0  0  0  0  0  0  0  0  0  0  0
   -1.3461   15.9233   16.7835 F   0  0  0  0  0  0  0  0  0  0  0  0
   -2.4391   18.9450   16.5245 C   0  0  0  0  0  0  0  0  0  0  0  0
   -1.0965   18.5114   16.3516 O   0  0  0  0  0  0  0  0  0  0  0  0
    5.8095   17.4444   22.0524 C   0  0  0  0  0  0  0  0  0  0  0  0
    5.0406   18.7425   22.3478 C   0  0  0  0  0  0  0  0  0  0  0  0
    5.6537   19.9488   21.6901 C   0  0  0  0  0  0  0  0  0  0  0  0
    4.8725   20.8805   21.0113 C   0  0  0  0  0  0  0  0  0  0  0  0
    5.3926   21.9724   20.3994 N   0  0  0  0  0  0  0  0  0  0  0  0
    6.7326   22.1042   20.5002 C   0  0  0  0  0  0  0  0  0  0  0  0
    7.5181   21.1888   21.1780 C   0  0  0  0  0  0  0  0  0  0  0  0
    7.0015   20.0962   21.7856 N   0  0  0  0  0  0  0  0  0  0  0  0
 18 19  1  0  0  0
 19  7  1  0  0  0
  7  8  1  0  0  0
  8  9  2  0  0  0
  9 10  1  0  0  0
 10 11  2  0  0  0
 11  1  1  0  0  0
  1  2  1  0  0  0
  2  3  1  0  0  0
  3  4  1  0  0  0
  4 20  1  0  0  0
 20 21  1  0  0  0
 21 22  1  0  0  0
 22 23  2  0  0  0
 23 24  1  0  0  0
 24 25  2  0  0  0
 25 26  1  0  0  0
 26 27  2  0  0  0
  4  5  1  0  0  0
  5  6  1  0  0  0
 11 12  1  0  0  0
 12 13  2  0  0  0
 13 14  1  0  0  0
 14 15  2  0  0  0
 15 16  1  0  0  0
 16 17  1  0  0  0
 16  7  2  0  0  0
 15 10  1  0  0  0
  6  1  1  0  0  0
 27 22  1  0  0  0
M  END
> <minimizedAffinity>
-7.20086

$$$$
OCNT-2311264


 30 33  0  0  0  0  0  0  0  0999 V2000
    2.6787   18.9442   18.7553 O   0  0  0  0  0  0  0  0  0  0  0  0
    1.7694   18.2034   19.1131 C   0  0  0  0  0  0  0  0  0  0  0  0
    1.8055   17.3240   20.1692 N   0  0  0  0  0  0  0  0  0  0  0  0
    0.9843   16.8197   20.4660 H   0  0  0  0  0  0  0  0  0  0  0  0
    0.4735   18.2524   18.3773 C   0  0  0  0  0  0  0  0  0  0  0  0
   -0.5917   17.4804   18.8470 C   0  0  0  0  0  0  0  0  0  0  0  0
   -1.8253   17.4953   18.1830 C   0  0  0  0  0  0  0  0  0  0  0  0
   -2.0300   18.2860   17.0482 C   0  0  0  0  0  0  0  0  0  0  0  0
   -0.9536   19.0709   16.5999 C   0  0  0  0  0  0  0  0  0  0  0  0
    0.2848   19.0624   17.2544 C   0  0  0  0  0  0  0  0  0  0  0  0
   -3.2338   18.3399   16.3405 N   0  0  0  0  0  0  0  0  0  0  0  0
   -3.7428   17.4762   16.2241 H   0  0  0  0  0  0  0  0  0  0  0  0
   -3.9444   19.3566   15.7094 C   0  0  0  0  0  0  0  0  0  0  0  0
   -3.9670   20.6124   16.1803 N   0  0  0  0  0  0  0  0  0  0  0  0
   -4.6857   21.5207   15.4943 C   0  0  0  0  0  0  0  0  0  0  0  0
   -5.3868   21.2265   14.3537 C   0  0  0  0  0  0  0  0  0  0  0  0
   -5.3089   19.9198   13.9462 C   0  0  0  0  0  0  0  0  0  0  0  0
   -4.6027   18.9770   14.5995 N   0  0  0  0  0  0  0  0  0  0  0  0
    2.8901   17.0967   20.9795 C   0  0  0  0  0  0  0  0  0  0  0  0
    3.6129   18.1450   21.3849 N   0  0  0  0  0  0  0  0  0  0  0  0
    4.5923   17.5978   22.1368 N   0  0  0  0  0  0  0  0  0  0  0  0
    4.4914   16.2408   22.2468 C   0  0  0  0  0  0  0  0  0  0  0  0
    3.3964   15.8851   21.4956 C   0  0  0  0  0  0  0  0  0  0  0  0
    5.5809   18.4511   22.7833 C   0  0  0  0  0  0  0  0  0  0  0  0
    5.8781   19.6859   21.9693 C   0  0  0  0  0  0  0  0  0  0  0  0
    4.8326   20.4580   21.4395 C   0  0  0  0  0  0  0  0  0  0  0  0
    5.1059   21.6021   20.6888 C   0  0  0  0  0  0  0  0  0  0  0  0
    6.4249   21.9887   20.4618 C   0  0  0  0  0  0  0  0  0  0  0  0
    7.4720   21.2317   20.9839 C   0  0  0  0  0  0  0  0  0  0  0  0
    7.2019   20.0859   21.7344 C   0  0  0  0  0  0  0  0  0  0  0  0
  1  2  2  0  0  0
  2  3  1  0  0  0
  3 19  1  0  0  0
 19 20  2  0  0  0
 20 21  1  0  0  0
 21 24  1  0  0  0
 24 25  1  0  0  0
 25 26  2  0  0  0
 26 27  1  0  0  0
 27 28  2  0  0  0
 28 29  1  0  0  0
 29 30  2  0  0  0
 21 22  1  0  0  0
 22 23  2  0  0  0
  2  5  1  0  0  0
  5  6  1  0  0  0
  6  7  2  0  0  0
  7  8  1  0  0  0
  8 11  1  0  0  0
 11 13  1  0  0  0
 13 14  2  0  0  0
 14 15  1  0  0  0
 15 16  2  0  0  0
 16 17  1  0  0  0
 17 18  2  0  0  0
  8  9  2  0  0  0
  9 10  1  0  0  0
 23 19  1  0  0  0
 10  5  2  0  0  0
 30 25  1  0  0  0
 18 13  1  0  0  0
  3  4  1  0  0  0
 11 12  1  0  0  0
M  END
> <minimizedAffinity>
-1.76512

$$$$
OCNT-2311278


 24 26  0  0  0  0  0  0  0  0999 V2000
    3.2755   18.1479   21.3094 N   0  0  0  0  0  0  0  0  0  0  0  0
    3.5311   16.8010   21.0984 C   0  0  0  0  0  0  0  0  0  0  0  0
    4.6437   16.3298   20.8881 O   0  0  0  0  0  0  0  0  0  0  0  0
    2.3335   18.4200   21.5473 H   0  0  0  0  0  0  0  0  0  0  0  0
    5.6655   20.8000   20.8539 C   0  0  0  0  0  0  0  0  0  0  0  0
    6.0413   20.3168   22.0430 N   0  0  0  0  0  0  0  0  0  0  0  0
    5.1787   19.3100   22.2736 N   0  0  0  0  0  0  0  0  0  0  0  0
    5.3043   18.5542   23.4972 C   0  0  0  0  0  0  0  0  0  0  0  0
    4.2554   19.1279   21.2689 C   0  0  0  0  0  0  0  0  0  0  0  0
    4.5576   20.0934   20.3332 C   0  0  0  0  0  0  0  0  0  0  0  0
    7.8910   21.8768   20.4737 C   0  0  0  0  0  0  0  0  0  0  0  0
    6.3903   21.9470   20.2370 C   0  0  0  0  0  0  0  0  0  0  0  0
    2.3417   15.9690   21.1633 C   0  0  0  0  0  0  0  0  0  0  0  0
    1.9808   14.9930   22.0807 C   0  0  0  0  0  0  0  0  0  0  0  0
    0.7025   14.5443   21.6931 C   0  0  0  0  0  0  0  0  0  0  0  0
   -0.1511   13.5216   22.3426 C   0  0  0  0  0  0  0  0  0  0  0  0
    0.2758   15.1801   20.6024 N   0  0  0  0  0  0  0  0  0  0  0  0
    1.2750   16.0348   20.2890 N   0  0  0  0  0  0  0  0  0  0  0  0
    1.1194   16.8951   19.1128 C   0  0  0  0  0  0  0  0  0  0  0  0
    0.8836   18.3487   19.5462 C   0  0  0  0  0  0  0  0  0  0  0  0
    0.1952   19.1209   18.4346 C   0  0  0  0  0  0  0  0  0  0  0  0
   -1.0815   18.5864   18.0854 O   0  0  0  0  0  0  0  0  0  0  0  0
   -1.2575   17.1935   18.3523 C   0  0  0  0  0  0  0  0  0  0  0  0
    0.0256   16.4061   18.1431 C   0  0  0  0  0  0  0  0  0  0  0  0
 11 12  1  0  0  0
 12  5  1  0  0  0
  5  6  2  0  0  0
  6  7  1  0  0  0
  7  8  1  0  0  0
  7  9  1  0  0  0
  9  1  1  0  0  0
  1  2  1  0  0  0
  2  3  2  0  0  0
  2 13  1  0  0  0
 13 14  2  0  0  0
 14 15  1  0  0  0
 15 16  1  0  0  0
 15 17  2  0  0  0
 17 18  1  0  0  0
 18 19  1  0  0  0
 19 20  1  0  0  0
 20 21  1  0  0  0
 21 22  1  0  0  0
 22 23  1  0  0  0
 23 24  1  0  0  0
  9 10  2  0  0  0
 10  5  1  0  0  0
 18 13  1  0  0  0
 24 19  1  0  0  0
  1  4  1  0  0  0
M  END
> <minimizedAffinity>
-8.34675

$$$$
OCNT-2311279


 27 29  0  0  0  0  0  0  0  0999 V2000
   -0.9491   16.4693   18.0195 C   0  0  0  0  0  0  0  0  0  0  0  0
    0.2921   15.2089   21.1783 N   0  0  0  0  0  0  0  0  0  0  0  0
    0.0501   15.1606   19.8377 C   0  0  0  0  0  0  0  0  0  0  0  0
    0.1489   14.1450   19.1623 O   0  0  0  0  0  0  0  0  0  0  0  0
   -0.3604   16.3743   19.3467 N   0  0  0  0  0  0  0  0  0  0  0  0
    0.4902   16.1014   21.6075 H   0  0  0  0  0  0  0  0  0  0  0  0
   -0.6587   17.0457   20.0400 H   0  0  0  0  0  0  0  0  0  0  0  0
    2.1747   14.1912   22.3929 C   0  0  0  0  0  0  0  0  0  0  0  0
    0.7347   14.0328   21.9074 C   0  0  0  0  0  0  0  0  0  0  0  0
   -0.2192   13.7979   23.0423 C   0  0  0  0  0  0  0  0  0  0  0  0
   -0.4843   14.7615   23.9408 N   0  0  0  0  0  0  0  0  0  0  0  0
   -1.3974   14.2092   24.8230 O   0  0  0  0  0  0  0  0  0  0  0  0
   -1.6697   12.9346   24.4517 C   0  0  0  0  0  0  0  0  0  0  0  0
   -0.9514   12.6205   23.3292 C   0  0  0  0  0  0  0  0  0  0  0  0
   -0.4402   17.6678   17.2134 C   0  0  0  0  0  0  0  0  0  0  0  0
    0.4685   18.5360   17.9948 C   0  0  0  0  0  0  0  0  0  0  0  0
    1.7026   18.3043   18.3782 N   0  0  0  0  0  0  0  0  0  0  0  0
    1.9855   19.4126   19.1467 C   0  0  0  0  0  0  0  0  0  0  0  0
    1.0033   20.3297   19.1625 N   0  0  0  0  0  0  0  0  0  0  0  0
   -0.0128   19.7398   18.4105 O   0  0  0  0  0  0  0  0  0  0  0  0
    3.2435   19.5412   19.8760 C   0  0  0  0  0  0  0  0  0  0  0  0
    3.6883   18.4962   20.7023 C   0  0  0  0  0  0  0  0  0  0  0  0
    4.8850   18.6094   21.4170 C   0  0  0  0  0  0  0  0  0  0  0  0
    5.6429   19.7730   21.3148 C   0  0  0  0  0  0  0  0  0  0  0  0
    7.1077   19.9180   22.2050 Cl  0  0  0  0  0  0  0  0  0  0  0  0
    5.2183   20.8210   20.5013 C   0  0  0  0  0  0  0  0  0  0  0  0
    4.0224   20.7052   19.7842 C   0  0  0  0  0  0  0  0  0  0  0  0
  8  9  1  0  0  0
  9  2  1  0  0  0
  2  3  1  0  0  0
  3  4  2  0  0  0
  3  5  1  0  0  0
  5  1  1  0  0  0
  1 15  1  0  0  0
 15 16  1  0  0  0
 16 17  2  0  0  0
 17 18  1  0  0  0
 18 21  1  0  0  0
 21 22  1  0  0  0
 22 23  2  0  0  0
 23 24  1  0  0  0
 24 25  1  0  0  0
 24 26  2  0  0  0
 26 27  1  0  0  0
 18 19  2  0  0  0
 19 20  1  0  0  0
  9 10  1  0  0  0
 10 11  2  0  0  0
 11 12  1  0  0  0
 12 13  1  0  0  0
 13 14  2  0  0  0
 20 16  1  0  0  0
 14 10  1  0  0  0
 27 21  2  0  0  0
  2  6  1  0  0  0
  5  7  1  0  0  0
M  END
> <minimizedAffinity>
-8.13905

$$$$
OCNT-2311287


 23 26  0  0  0  0  0  0  0  0999 V2000
    1.8146   19.1625   19.9869 N   0  0  0  0  0  0  0  0  0  0  0  0
    2.5685   20.4623   19.7253 C   0  0  0  0  0  0  0  0  0  0  0  0
    3.9311   20.2208   20.2251 C   0  0  0  0  0  0  0  0  0  0  0  0
    4.0439   18.9302   20.6442 C   0  0  0  0  0  0  0  0  0  0  0  0
    2.8141   18.1425   20.4883 C   0  0  0  0  0  0  0  0  0  0  0  0
    5.2980   18.7587   21.0953 N   0  0  0  0  0  0  0  0  0  0  0  0
    5.9051   17.5734   21.6408 C   0  0  0  0  0  0  0  0  0  0  0  0
    6.0234   19.9034   20.9855 N   0  0  0  0  0  0  0  0  0  0  0  0
    5.1744   20.7928   20.4534 C   0  0  0  0  0  0  0  0  0  0  0  0
    5.5059   22.0589   20.1761 N   0  0  0  0  0  0  0  0  0  0  0  0
    6.5026   22.2495   20.1984 H   0  0  0  0  0  0  0  0  0  0  0  0
    5.0323   22.5472   19.4274 H   0  0  0  0  0  0  0  0  0  0  0  0
   -0.2391   13.8258   19.4823 C   0  0  0  0  0  0  0  0  0  0  0  0
   -0.0414   15.2090   18.9523 C   0  0  0  0  0  0  0  0  0  0  0  0
    0.6548   16.2644   19.5274 C   0  0  0  0  0  0  0  0  0  0  0  0
    1.3769   16.1913   20.8369 C   0  0  0  0  0  0  0  0  0  0  0  0
    0.6012   17.4572   18.6948 C   0  0  0  0  0  0  0  0  0  0  0  0
    1.1223   18.7665   18.8349 C   0  0  0  0  0  0  0  0  0  0  0  0
    0.9074   19.6571   17.8369 N   0  0  0  0  0  0  0  0  0  0  0  0
    0.2063   19.2737   16.7606 C   0  0  0  0  0  0  0  0  0  0  0  0
   -0.3377   18.0803   16.5289 N   0  0  0  0  0  0  0  0  0  0  0  0
   -0.1063   17.2138   17.5286 C   0  0  0  0  0  0  0  0  0  0  0  0
   -0.7142   15.6306   17.4396 S   0  0  0  0  0  0  0  0  0  0  0  0
 13 14  1  0  0  0
 14 15  2  0  0  0
 15 16  1  0  0  0
 15 17  1  0  0  0
 17 18  2  0  0  0
 18  1  1  0  0  0
  1  2  1  0  0  0
  2  3  1  0  0  0
  3  4  2  0  0  0
  4  5  1  0  0  0
  4  6  1  0  0  0
  6  7  1  0  0  0
  6  8  1  0  0  0
  8  9  2  0  0  0
  9 10  1  0  0  0
 18 19  1  0  0  0
 19 20  2  0  0  0
 20 21  1  0  0  0
 21 22  2  0  0  0
 22 23  1  0  0  0
 23 14  1  0  0  0
 22 17  1  0  0  0
  5  1  1  0  0  0
  9  3  1  0  0  0
 10 11  1  0  0  0
 10 12  1  0  0  0
M  END
> <minimizedAffinity>
-7.67280

$$$$
OCNT-2311309


 27 30  0  0  0  0  0  0  0  0999 V2000
    2.6901   19.4902   19.7222 C   0  0  0  0  0  0  0  0  0  0  0  0
    3.5908   20.5542   19.8027 C   0  0  0  0  0  0  0  0  0  0  0  0
    4.7366   20.4106   20.5684 C   0  0  0  0  0  0  0  0  0  0  0  0
    4.9890   19.2522   21.2239 N   0  0  0  0  0  0  0  0  0  0  0  0
    4.1332   18.2208   21.1383 C   0  0  0  0  0  0  0  0  0  0  0  0
    4.4420   17.0543   21.8286 C   0  0  0  0  0  0  0  0  0  0  0  0
    3.6049   15.9374   21.8011 C   0  0  0  0  0  0  0  0  0  0  0  0
    2.4343   15.9915   21.0663 C   0  0  0  0  0  0  0  0  0  0  0  0
    1.6211   14.9288   21.0352 F   0  0  0  0  0  0  0  0  0  0  0  0
    2.0941   17.1397   20.3641 C   0  0  0  0  0  0  0  0  0  0  0  0
    2.9433   18.2740   20.3881 C   0  0  0  0  0  0  0  0  0  0  0  0
    1.3634   18.8246   17.8161 N   0  0  0  0  0  0  0  0  0  0  0  0
    1.4778   19.6788   18.8931 C   0  0  0  0  0  0  0  0  0  0  0  0
    0.6483   20.5309   19.1805 O   0  0  0  0  0  0  0  0  0  0  0  0
    2.0407   18.0800   17.7110 H   0  0  0  0  0  0  0  0  0  0  0  0
   -2.4116   18.8470   17.2027 C   0  0  0  0  0  0  0  0  0  0  0  0
   -1.1001   18.5341   17.9253 C   0  0  0  0  0  0  0  0  0  0  0  0
   -1.1227   17.1673   18.4344 N   0  0  0  0  0  0  0  0  0  0  0  0
   -0.7581   16.0737   17.7033 C   0  0  0  0  0  0  0  0  0  0  0  0
   -1.1318   14.9546   18.0436 O   0  0  0  0  0  0  0  0  0  0  0  0
    0.2181   16.2802   16.5642 C   0  0  0  0  0  0  0  0  0  0  0  0
    0.2217   17.6797   15.9593 C   0  0  0  0  0  0  0  0  0  0  0  0
    0.1337   18.7752   17.0244 C   0  0  0  0  0  0  0  0  0  0  0  0
   -1.7820   16.9506   19.1738 H   0  0  0  0  0  0  0  0  0  0  0  0
    5.7420   21.5318   20.6729 C   0  0  0  0  0  0  0  0  0  0  0  0
    7.2211   21.2223   20.6367 C   0  0  0  0  0  0  0  0  0  0  0  0
    6.5898   21.6817   21.9161 C   0  0  0  0  0  0  0  0  0  0  0  0
 16 17  1  0  0  0
 17 18  1  0  0  0
 18 19  1  0  0  0
 19 20  2  0  0  0
 19 21  1  0  0  0
 21 22  1  0  0  0
 22 23  1  0  0  0
 23 12  1  0  0  0
 12 13  1  0  0  0
 13 14  2  0  0  0
 13  1  1  0  0  0
  1  2  2  0  0  0
  2  3  1  0  0  0
  3 25  1  0  0  0
 25 26  1  0  0  0
 26 27  1  0  0  0
  3  4  2  0  0  0
  4  5  1  0  0  0
  5  6  2  0  0  0
  6  7  1  0  0  0
  7  8  2  0  0  0
  8  9  1  0  0  0
  8 10  1  0  0  0
 10 11  2  0  0  0
 23 17  1  0  0  0
 11  1  1  0  0  0
 27 25  1  0  0  0
 11  5  1  0  0  0
 18 24  1  0  0  0
 12 15  1  0  0  0
M  END
> <minimizedAffinity>
-9.02467

$$$$
OCNT-2311313


 27 30  0  0  0  0  0  0  0  0999 V2000
    1.4990   20.2008   19.2832 C   0  0  0  0  0  0  0  0  0  0  0  0
    0.8301   21.2211   19.4059 O   0  0  0  0  0  0  0  0  0  0  0  0
    2.8631   20.1375   19.4857 N   0  0  0  0  0  0  0  0  0  0  0  0
    3.2935   19.2263   19.3354 H   0  0  0  0  0  0  0  0  0  0  0  0
    0.9394   15.5053   20.1706 C   0  0  0  0  0  0  0  0  0  0  0  0
    0.3743   14.2542   19.8622 C   0  0  0  0  0  0  0  0  0  0  0  0
   -0.4706   14.1113   18.7662 C   0  0  0  0  0  0  0  0  0  0  0  0
   -0.7580   15.2155   17.9688 C   0  0  0  0  0  0  0  0  0  0  0  0
   -0.2043   16.4699   18.2674 C   0  0  0  0  0  0  0  0  0  0  0  0
   -0.4866   17.5857   17.4650 C   0  0  0  0  0  0  0  0  0  0  0  0
    0.0660   18.8206   17.7752 C   0  0  0  0  0  0  0  0  0  0  0  0
    0.8815   18.8935   18.8896 C   0  0  0  0  0  0  0  0  0  0  0  0
    1.1820   17.8322   19.6922 N   0  0  0  0  0  0  0  0  0  0  0  0
    0.6516   16.6322   19.3849 C   0  0  0  0  0  0  0  0  0  0  0  0
    2.3948   14.2590   21.8054 C   0  0  0  0  0  0  0  0  0  0  0  0
    1.8460   15.6125   21.3790 C   0  0  0  0  0  0  0  0  0  0  0  0
    3.6711   21.2901   19.8208 C   0  0  0  0  0  0  0  0  0  0  0  0
    4.9453   20.9402   20.6153 C   0  0  0  0  0  0  0  0  0  0  0  0
    4.9604   19.4735   21.1201 C   0  0  0  0  0  0  0  0  0  0  0  0
    6.2474   19.0986   21.8773 C   0  0  0  0  0  0  0  0  0  0  0  0
    6.8021   20.2330   22.7552 C   0  0  0  0  0  0  0  0  0  0  0  0
    6.6441   21.6132   22.1044 C   0  0  0  0  0  0  0  0  0  0  0  0
    5.1609   21.8693   21.8188 C   0  0  0  0  0  0  0  0  0  0  0  0
    7.1995   21.5782   20.6903 C   0  0  0  0  0  0  0  0  0  0  0  0
    8.3562   21.7399   20.3491 O   0  0  0  0  0  0  0  0  0  0  0  0
    6.1481   21.2277   19.8518 N   0  0  0  0  0  0  0  0  0  0  0  0
    6.3340   20.9421   18.8982 H   0  0  0  0  0  0  0  0  0  0  0  0
 15 16  1  0  0  0
 16  5  1  0  0  0
  5  6  1  0  0  0
  6  7  2  0  0  0
  7  8  1  0  0  0
  8  9  2  0  0  0
  9 10  1  0  0  0
 10 11  2  0  0  0
 11 12  1  0  0  0
 12  1  1  0  0  0
  1  2  2  0  0  0
  1  3  1  0  0  0
  3 17  1  0  0  0
 17 18  1  0  0  0
 18 19  1  0  0  0
 19 20  1  0  0  0
 20 21  1  0  0  0
 21 22  1  0  0  0
 22 23  1  0  0  0
 22 24  1  0  0  0
 24 25  2  0  0  0
 24 26  1  0  0  0
 12 13  2  0  0  0
 13 14  1  0  0  0
 14  5  2  0  0  0
 14  9  1  0  0  0
 23 18  1  0  0  0
 26 18  1  0  0  0
  3  4  1  0  0  0
 26 27  1  0  0  0
M  END
> <minimizedAffinity>
-11.18992

$$$$
OCNT-2311331


 23 25  0  0  0  0  0  0  0  0999 V2000
    1.1078   18.1478   19.3816 C   0  0  0  0  0  0  0  0  0  0  0  0
    0.4342   19.1225   19.7015 O   0  0  0  0  0  0  0  0  0  0  0  0
    2.4855   18.0975   19.4297 N   0  0  0  0  0  0  0  0  0  0  0  0
    2.9093   17.2239   19.1344 H   0  0  0  0  0  0  0  0  0  0  0  0
    3.3659   19.1145   19.8506 C   0  0  0  0  0  0  0  0  0  0  0  0
    3.3104   20.4447   19.4494 C   0  0  0  0  0  0  0  0  0  0  0  0
    4.1744   21.4053   19.8710 N   0  0  0  0  0  0  0  0  0  0  0  0
    5.1471   21.0326   20.7341 C   0  0  0  0  0  0  0  0  0  0  0  0
    6.0708   22.1088   21.2329 C   0  0  0  0  0  0  0  0  0  0  0  0
    7.3606   21.4949   21.7561 C   0  0  0  0  0  0  0  0  0  0  0  0
    7.0520   20.4905   22.7258 O   0  0  0  0  0  0  0  0  0  0  0  0
    6.4151   19.3586   22.1239 C   0  0  0  0  0  0  0  0  0  0  0  0
    5.2847   19.7276   21.2034 C   0  0  0  0  0  0  0  0  0  0  0  0
    4.3812   18.7620   20.7429 C   0  0  0  0  0  0  0  0  0  0  0  0
   -0.3309   16.8207   17.6804 C   0  0  0  0  0  0  0  0  0  0  0  0
   -0.9522   15.6059   17.3445 C   0  0  0  0  0  0  0  0  0  0  0  0
   -0.8510   14.4964   18.1859 C   0  0  0  0  0  0  0  0  0  0  0  0
   -0.1317   14.5946   19.3657 C   0  0  0  0  0  0  0  0  0  0  0  0
   -0.0375   13.5290   20.1706 F   0  0  0  0  0  0  0  0  0  0  0  0
    0.4878   15.7826   19.7238 C   0  0  0  0  0  0  0  0  0  0  0  0
    0.3969   16.9134   18.8908 C   0  0  0  0  0  0  0  0  0  0  0  0
   -1.6022   18.7069   16.9184 C   0  0  0  0  0  0  0  0  0  0  0  0
   -0.4006   17.9398   16.8866 O   0  0  0  0  0  0  0  0  0  0  0  0
 22 23  1  0  0  0
 23 15  1  0  0  0
 15 16  1  0  0  0
 16 17  2  0  0  0
 17 18  1  0  0  0
 18 19  1  0  0  0
 18 20  2  0  0  0
 20 21  1  0  0  0
 21  1  1  0  0  0
  1  2  2  0  0  0
  1  3  1  0  0  0
  3  5  1  0  0  0
  5  6  1  0  0  0
  6  7  2  0  0  0
  7  8  1  0  0  0
  8  9  1  0  0  0
  9 10  1  0  0  0
 10 11  1  0  0  0
 11 12  1  0  0  0
 12 13  1  0  0  0
 13 14  1  0  0  0
 21 15  2  0  0  0
 14  5  2  0  0  0
 13  8  2  0  0  0
  3  4  1  0  0  0
M  END
> <minimizedAffinity>
-9.79656

$$$$
OCNT-2311336


 26 29  0  0  0  0  0  0  0  0999 V2000
    5.0229   20.4751   19.3345 O   0  0  0  0  0  0  0  0  0  0  0  0
    4.4583   20.8417   20.3609 C   0  0  0  0  0  0  0  0  0  0  0  0
    3.1447   21.2693   20.3682 N   0  0  0  0  0  0  0  0  0  0  0  0
    2.6744   21.1395   21.2651 H   0  0  0  0  0  0  0  0  0  0  0  0
    5.1181   20.8324   21.7642 C   0  0  0  0  0  0  0  0  0  0  0  0
    6.2837   21.8439   21.8373 C   0  0  0  0  0  0  0  0  0  0  0  0
    7.4425   21.0776   22.4578 C   0  0  0  0  0  0  0  0  0  0  0  0
    7.2014   19.6426   22.0113 C   0  0  0  0  0  0  0  0  0  0  0  0
    5.7546   19.5316   22.0598 N   0  0  0  0  0  0  0  0  0  0  0  0
    5.0756   18.3564   22.0135 C   0  0  0  0  0  0  0  0  0  0  0  0
    4.0543   18.0775   22.8002 N   0  0  0  0  0  0  0  0  0  0  0  0
    3.5546   16.8161   22.5292 C   0  0  0  0  0  0  0  0  0  0  0  0
    4.1819   16.1362   21.5131 C   0  0  0  0  0  0  0  0  0  0  0  0
    5.4662   17.0774   20.9051 S   0  0  0  0  0  0  0  0  0  0  0  0
    2.3299   21.1911   19.1814 C   0  0  0  0  0  0  0  0  0  0  0  0
    1.7039   19.8344   19.0379 C   0  0  0  0  0  0  0  0  0  0  0  0
    0.7593   19.5682   18.0460 C   0  0  0  0  0  0  0  0  0  0  0  0
    0.2107   18.2879   17.9252 C   0  0  0  0  0  0  0  0  0  0  0  0
    0.6309   17.2923   18.8092 C   0  0  0  0  0  0  0  0  0  0  0  0
    1.5535   17.5270   19.7783 N   0  0  0  0  0  0  0  0  0  0  0  0
    2.0747   18.7749   19.8624 C   0  0  0  0  0  0  0  0  0  0  0  0
    0.1051   15.9696   18.7228 N   0  0  0  0  0  0  0  0  0  0  0  0
   -0.6345   15.4629   17.6695 C   0  0  0  0  0  0  0  0  0  0  0  0
   -0.9379   14.1651   18.0028 C   0  0  0  0  0  0  0  0  0  0  0  0
   -0.4110   13.8439   19.2250 N   0  0  0  0  0  0  0  0  0  0  0  0
    0.2033   14.9405   19.6304 C   0  0  0  0  0  0  0  0  0  0  0  0
  1  2  2  0  0  0
  2  3  1  0  0  0
  3 15  1  0  0  0
 15 16  1  0  0  0
 16 17  2  0  0  0
 17 18  1  0  0  0
 18 19  2  0  0  0
 19 22  1  0  0  0
 22 23  1  0  0  0
 23 24  2  0  0  0
 24 25  1  0  0  0
 25 26  2  0  0  0
 19 20  1  0  0  0
 20 21  2  0  0  0
  2  5  1  0  0  0
  5  6  1  0  0  0
  6  7  1  0  0  0
  7  8  1  0  0  0
  8  9  1  0  0  0
  9 10  1  0  0  0
 10 11  2  0  0  0
 11 12  1  0  0  0
 12 13  2  0  0  0
 13 14  1  0  0  0
 21 16  1  0  0  0
  9  5  1  0  0  0
 14 10  1  0  0  0
 26 22  1  0  0  0
  3  4  1  0  0  0
M  END
> <minimizedAffinity>
-5.01592

$$$$
OCNT-2311338


 25 27  0  0  0  0  0  0  0  0999 V2000
    2.3164   17.5247   20.1310 N   0  0  0  0  0  0  0  0  0  0  0  0
    3.0147   18.7088   19.9749 C   0  0  0  0  0  0  0  0  0  0  0  0
    2.8378   19.5612   19.1146 O   0  0  0  0  0  0  0  0  0  0  0  0
    2.7278   16.8430   20.7520 H   0  0  0  0  0  0  0  0  0  0  0  0
    1.2944   14.8577   20.6395 C   0  0  0  0  0  0  0  0  0  0  0  0
    0.6520   15.8100   19.6652 C   0  0  0  0  0  0  0  0  0  0  0  0
   -0.4979   15.3798   18.9794 C   0  0  0  0  0  0  0  0  0  0  0  0
   -1.1383   16.2136   18.0644 C   0  0  0  0  0  0  0  0  0  0  0  0
   -0.6351   17.4934   17.8256 C   0  0  0  0  0  0  0  0  0  0  0  0
    0.5036   17.9382   18.5105 C   0  0  0  0  0  0  0  0  0  0  0  0
    1.1646   17.1050   19.4220 C   0  0  0  0  0  0  0  0  0  0  0  0
   -1.3060   18.4193   16.8773 C   0  0  0  0  0  0  0  0  0  0  0  0
   -0.4970   19.1848   16.0820 N   0  0  0  0  0  0  0  0  0  0  0  0
   -2.5234   18.5224   16.8198 O   0  0  0  0  0  0  0  0  0  0  0  0
   -0.9706   19.9089   15.5560 H   0  0  0  0  0  0  0  0  0  0  0  0
    0.4711   19.3458   16.3200 H   0  0  0  0  0  0  0  0  0  0  0  0
    4.1350   18.9047   20.9338 C   0  0  0  0  0  0  0  0  0  0  0  0
    4.3442   17.9440   21.9171 C   0  0  0  0  0  0  0  0  0  0  0  0
    5.3867   18.1461   22.7951 C   0  0  0  0  0  0  0  0  0  0  0  0
    6.2100   19.2165   22.7464 N   0  0  0  0  0  0  0  0  0  0  0  0
    6.0229   20.1419   21.7725 C   0  0  0  0  0  0  0  0  0  0  0  0
    4.9916   20.0046   20.8460 C   0  0  0  0  0  0  0  0  0  0  0  0
    6.9743   21.3123   21.6980 C   0  0  0  0  0  0  0  0  0  0  0  0
    8.0732   21.3364   20.6594 C   0  0  0  0  0  0  0  0  0  0  0  0
    6.9049   22.2659   20.5271 C   0  0  0  0  0  0  0  0  0  0  0  0
  5  6  1  0  0  0
  6  7  1  0  0  0
  7  8  2  0  0  0
  8  9  1  0  0  0
  9 12  1  0  0  0
 12 13  1  0  0  0
 12 14  2  0  0  0
  9 10  2  0  0  0
 10 11  1  0  0  0
 11  1  1  0  0  0
  1  2  1  0  0  0
  2  3  2  0  0  0
  2 17  1  0  0  0
 17 18  2  0  0  0
 18 19  1  0  0  0
 19 20  2  0  0  0
 20 21  1  0  0  0
 21 23  1  0  0  0
 23 24  1  0  0  0
 24 25  1  0  0  0
 21 22  2  0  0  0
 11  6  2  0  0  0
 22 17  1  0  0  0
 25 23  1  0  0  0
 13 15  1  0  0  0
 13 16  1  0  0  0
  1  4  1  0  0  0
M  END
> <minimizedAffinity>
-9.90868

$$$$
OCNT-2311340


 32 35  0  0  0  0  0  0  0  0999 V2000
    5.8490   18.5096   22.7126 N   0  0  0  0  0  0  0  0  0  0  0  0
    6.0803   17.5646   21.6096 C   0  0  0  0  0  0  0  0  0  0  0  0
    5.4015   16.2072   21.8555 C   0  0  0  0  0  0  0  0  0  0  0  0
    3.9517   16.3349   21.9823 N   0  0  0  0  0  0  0  0  0  0  0  0
    3.1752   15.2165   21.7570 C   0  0  0  0  0  0  0  0  0  0  0  0
    3.6570   14.1014   21.5736 O   0  0  0  0  0  0  0  0  0  0  0  0
    1.8250   15.4457   21.7575 N   0  0  0  0  0  0  0  0  0  0  0  0
    3.4553   17.6457   22.4159 C   0  0  0  0  0  0  0  0  0  0  0  0
    4.4815   18.4351   23.2583 C   0  0  0  0  0  0  0  0  0  0  0  0
    1.5490   16.3636   21.4481 H   0  0  0  0  0  0  0  0  0  0  0  0
    6.3505   19.8722   22.4210 C   0  0  0  0  0  0  0  0  0  0  0  0
    5.4770   20.6056   21.4029 C   0  0  0  0  0  0  0  0  0  0  0  0
    5.4057   22.0063   21.3289 C   0  0  0  0  0  0  0  0  0  0  0  0
    4.5919   22.6301   20.3797 C   0  0  0  0  0  0  0  0  0  0  0  0
    3.8443   21.8659   19.4868 C   0  0  0  0  0  0  0  0  0  0  0  0
    3.9149   20.4763   19.5349 C   0  0  0  0  0  0  0  0  0  0  0  0
    4.7274   19.8511   20.4822 C   0  0  0  0  0  0  0  0  0  0  0  0
    8.2470   20.9307   21.2402 N   0  0  0  0  0  0  0  0  0  0  0  0
    7.8668   19.9162   22.0828 C   0  0  0  0  0  0  0  0  0  0  0  0
    8.7150   19.1297   22.4977 O   0  0  0  0  0  0  0  0  0  0  0  0
    7.5706   21.3645   20.6245 H   0  0  0  0  0  0  0  0  0  0  0  0
    9.2081   20.9020   20.9228 H   0  0  0  0  0  0  0  0  0  0  0  0
    0.8882   14.3835   21.4674 C   0  0  0  0  0  0  0  0  0  0  0  0
    0.2915   14.5431   20.0890 C   0  0  0  0  0  0  0  0  0  0  0  0
   -0.2212   13.4286   19.4031 C   0  0  0  0  0  0  0  0  0  0  0  0
   -0.7984   13.5505   18.1331 C   0  0  0  0  0  0  0  0  0  0  0  0
   -0.8447   14.8320   17.5917 C   0  0  0  0  0  0  0  0  0  0  0  0
   -1.3647   15.1597   16.3760 O   0  0  0  0  0  0  0  0  0  0  0  0
   -1.2178   16.5031   16.2336 C   0  0  0  0  0  0  0  0  0  0  0  0
   -0.6101   17.0455   17.3426 C   0  0  0  0  0  0  0  0  0  0  0  0
   -0.3611   15.9665   18.2310 C   0  0  0  0  0  0  0  0  0  0  0  0
    0.2160   15.8247   19.5052 C   0  0  0  0  0  0  0  0  0  0  0  0
 18 19  1  0  0  0
 19 20  2  0  0  0
 19 11  1  0  0  0
 11 12  1  0  0  0
 12 13  2  0  0  0
 13 14  1  0  0  0
 14 15  2  0  0  0
 15 16  1  0  0  0
 16 17  2  0  0  0
 11  1  1  0  0  0
  1  2  1  0  0  0
  2  3  1  0  0  0
  3  4  1  0  0  0
  4  5  1  0  0  0
  5  6  2  0  0  0
  5  7  1  0  0  0
  7 23  1  0  0  0
 23 24  1  0  0  0
 24 25  2  0  0  0
 25 26  1  0  0  0
 26 27  2  0  0  0
 27 28  1  0  0  0
 28 29  1  0  0  0
 29 30  2  0  0  0
 30 31  1  0  0  0
 31 32  2  0  0  0
  4  8  1  0  0  0
  8  9  1  0  0  0
 17 12  1  0  0  0
  9  1  1  0  0  0
 32 24  1  0  0  0
 31 27  1  0  0  0
 18 21  1  0  0  0
 18 22  1  0  0  0
  7 10  1  0  0  0
M  END
> <minimizedAffinity>
-1.50913

$$$$
OCNT-2311357


 27 29  0  0  0  0  0  0  0  0999 V2000
    2.1393   14.5238   21.8781 C   0  0  0  0  0  0  0  0  0  0  0  0
    2.8274   13.5102   21.9985 O   0  0  0  0  0  0  0  0  0  0  0  0
    2.6997   15.7775   21.8191 N   0  0  0  0  0  0  0  0  0  0  0  0
    2.1092   16.5665   22.0806 H   0  0  0  0  0  0  0  0  0  0  0  0
   -0.0490   13.6134   22.9011 C   0  0  0  0  0  0  0  0  0  0  0  0
    0.6121   14.4537   21.8138 C   0  0  0  0  0  0  0  0  0  0  0  0
    0.0405   14.0487   20.1329 S   0  0  0  0  0  0  0  0  0  0  0  0
    0.0650   15.5866   19.3041 C   0  0  0  0  0  0  0  0  0  0  0  0
    0.6873   16.6348   19.7926 N   0  0  0  0  0  0  0  0  0  0  0  0
    0.5916   17.6893   18.8973 C   0  0  0  0  0  0  0  0  0  0  0  0
    1.1668   18.9651   19.0626 C   0  0  0  0  0  0  0  0  0  0  0  0
    0.9735   19.9473   18.0865 C   0  0  0  0  0  0  0  0  0  0  0  0
    0.2196   19.6716   16.9503 C   0  0  0  0  0  0  0  0  0  0  0  0
   -0.3539   18.4110   16.7577 C   0  0  0  0  0  0  0  0  0  0  0  0
   -0.1515   17.4322   17.7440 C   0  0  0  0  0  0  0  0  0  0  0  0
   -0.7027   15.8032   17.7899 S   0  0  0  0  0  0  0  0  0  0  0  0
    4.1346   15.9517   21.9794 C   0  0  0  0  0  0  0  0  0  0  0  0
    4.7222   17.1291   21.2109 C   0  0  0  0  0  0  0  0  0  0  0  0
    4.2660   17.5330   20.1475 O   0  0  0  0  0  0  0  0  0  0  0  0
    5.8173   17.6429   21.8368 O   0  0  0  0  0  0  0  0  0  0  0  0
    5.5873   18.7995   22.6489 C   0  0  0  0  0  0  0  0  0  0  0  0
    5.7913   20.0284   21.8042 C   0  0  0  0  0  0  0  0  0  0  0  0
    4.6994   20.6676   21.2009 C   0  0  0  0  0  0  0  0  0  0  0  0
    4.8940   21.7944   20.4009 C   0  0  0  0  0  0  0  0  0  0  0  0
    6.1806   22.2869   20.1903 C   0  0  0  0  0  0  0  0  0  0  0  0
    7.2741   21.6503   20.7738 C   0  0  0  0  0  0  0  0  0  0  0  0
    7.0821   20.5233   21.5741 C   0  0  0  0  0  0  0  0  0  0  0  0
  5  6  1  0  0  0
  6  7  1  0  0  0
  7  8  1  0  0  0
  8  9  2  0  0  0
  9 10  1  0  0  0
 10 11  2  0  0  0
 11 12  1  0  0  0
 12 13  2  0  0  0
 13 14  1  0  0  0
 14 15  2  0  0  0
 15 16  1  0  0  0
  6  1  1  0  0  0
  1  2  2  0  0  0
  1  3  1  0  0  0
  3 17  1  0  0  0
 17 18  1  0  0  0
 18 19  2  0  0  0
 18 20  1  0  0  0
 20 21  1  0  0  0
 21 22  1  0  0  0
 22 23  2  0  0  0
 23 24  1  0  0  0
 24 25  2  0  0  0
 25 26  1  0  0  0
 26 27  2  0  0  0
 16  8  1  0  0  0
 27 22  1  0  0  0
 15 10  1  0  0  0
  3  4  1  0  0  0
M  END
> <minimizedAffinity>
-8.36375

$$$$
OCNT-2311370


 29 32  0  0  0  0  0  0  0  0999 V2000
    0.1344   13.9892   22.0012 O   0  0  0  0  0  0  0  0  0  0  0  0
    0.6732   14.0732   20.9000 C   0  0  0  0  0  0  0  0  0  0  0  0
    2.0067   14.3918   20.7385 N   0  0  0  0  0  0  0  0  0  0  0  0
    2.2962   14.7495   19.8300 H   0  0  0  0  0  0  0  0  0  0  0  0
   -0.1239   13.9664   19.5987 C   0  0  0  0  0  0  0  0  0  0  0  0
   -0.4092   15.2729   19.0304 N   0  0  0  0  0  0  0  0  0  0  0  0
   -0.3340   16.4334   19.7425 C   0  0  0  0  0  0  0  0  0  0  0  0
    0.0127   16.5513   20.9072 O   0  0  0  0  0  0  0  0  0  0  0  0
   -0.7824   17.5730   18.8603 C   0  0  0  0  0  0  0  0  0  0  0  0
    0.1646   18.7680   18.9468 C   0  0  0  0  0  0  0  0  0  0  0  0
    0.0250   19.6574   17.7177 C   0  0  0  0  0  0  0  0  0  0  0  0
    0.3269   18.9140   16.4146 C   0  0  0  0  0  0  0  0  0  0  0  0
    0.2549   17.3931   16.5396 C   0  0  0  0  0  0  0  0  0  0  0  0
   -0.8741   16.9482   17.4637 C   0  0  0  0  0  0  0  0  0  0  0  0
   -0.7854   15.4704   17.7371 C   0  0  0  0  0  0  0  0  0  0  0  0
   -1.0249   14.5904   16.9219 O   0  0  0  0  0  0  0  0  0  0  0  0
    2.8459   14.7312   21.8643 C   0  0  0  0  0  0  0  0  0  0  0  0
    3.4968   16.0750   21.6623 C   0  0  0  0  0  0  0  0  0  0  0  0
    4.7967   16.3173   22.1203 C   0  0  0  0  0  0  0  0  0  0  0  0
    5.4048   17.5589   21.9061 C   0  0  0  0  0  0  0  0  0  0  0  0
    4.7370   18.5872   21.2213 C   0  0  0  0  0  0  0  0  0  0  0  0
    3.4377   18.3295   20.7561 C   0  0  0  0  0  0  0  0  0  0  0  0
    2.8264   17.0900   20.9699 C   0  0  0  0  0  0  0  0  0  0  0  0
    5.3807   19.8889   20.9943 C   0  0  0  0  0  0  0  0  0  0  0  0
    6.6129   20.2168   21.5744 C   0  0  0  0  0  0  0  0  0  0  0  0
    7.1940   21.4620   21.3390 C   0  0  0  0  0  0  0  0  0  0  0  0
    6.5238   22.3556   20.5220 C   0  0  0  0  0  0  0  0  0  0  0  0
    5.3377   22.0895   19.9384 N   0  0  0  0  0  0  0  0  0  0  0  0
    4.7998   20.8695   20.1878 C   0  0  0  0  0  0  0  0  0  0  0  0
  1  2  2  0  0  0
  2  5  1  0  0  0
  5  6  1  0  0  0
  6  7  1  0  0  0
  7  8  2  0  0  0
  7  9  1  0  0  0
  9 10  1  0  0  0
 10 11  1  0  0  0
 11 12  1  0  0  0
 12 13  1  0  0  0
 13 14  1  0  0  0
 14 15  1  0  0  0
 15 16  2  0  0  0
  2  3  1  0  0  0
  3 17  1  0  0  0
 17 18  1  0  0  0
 18 19  1  0  0  0
 19 20  2  0  0  0
 20 21  1  0  0  0
 21 24  1  0  0  0
 24 25  1  0  0  0
 25 26  2  0  0  0
 26 27  1  0  0  0
 27 28  2  0  0  0
 28 29  1  0  0  0
 21 22  2  0  0  0
 22 23  1  0  0  0
 15  6  1  0  0  0
 23 18  2  0  0  0
 14  9  1  0  0  0
 29 24  2  0  0  0
  3  4  1  0  0  0
M  END
> <minimizedAffinity>
-7.34794

$$$$
OCNT-2311372


 23 25  0  0  0  0  0  0  0  0999 V2000
    4.8485   18.4208   22.5816 C   0  0  0  0  0  0  0  0  0  0  0  0
    5.0066   18.3168   23.7960 O   0  0  0  0  0  0  0  0  0  0  0  0
    4.0710   17.5400   21.8394 N   0  0  0  0  0  0  0  0  0  0  0  0
    3.5619   17.7950   20.4846 C   0  0  0  0  0  0  0  0  0  0  0  0
    2.1562   17.1962   20.2792 C   0  0  0  0  0  0  0  0  0  0  0  0
    2.0907   15.7356   20.4999 N   0  0  0  0  0  0  0  0  0  0  0  0
    3.0510   15.2889   21.5359 C   0  0  0  0  0  0  0  0  0  0  0  0
    3.5015   16.3787   22.5237 C   0  0  0  0  0  0  0  0  0  0  0  0
    4.6694   22.4786   19.6534 C   0  0  0  0  0  0  0  0  0  0  0  0
    5.4275   21.4902   20.4810 C   0  0  0  0  0  0  0  0  0  0  0  0
    6.7939   21.6381   20.7065 C   0  0  0  0  0  0  0  0  0  0  0  0
    7.5324   20.8100   21.4825 N   0  0  0  0  0  0  0  0  0  0  0  0
    6.8726   19.7866   22.0752 C   0  0  0  0  0  0  0  0  0  0  0  0
    5.5198   19.5407   21.8983 C   0  0  0  0  0  0  0  0  0  0  0  0
    4.7804   20.4234   21.1104 C   0  0  0  0  0  0  0  0  0  0  0  0
    0.7215   15.2808   20.8079 C   0  0  0  0  0  0  0  0  0  0  0  0
   -0.0819   14.8604   19.5646 C   0  0  0  0  0  0  0  0  0  0  0  0
   -0.3975   16.0446   18.6817 C   0  0  0  0  0  0  0  0  0  0  0  0
   -0.4007   15.9104   17.2866 C   0  0  0  0  0  0  0  0  0  0  0  0
   -0.6730   17.0103   16.4717 C   0  0  0  0  0  0  0  0  0  0  0  0
   -0.9401   18.2532   17.0425 C   0  0  0  0  0  0  0  0  0  0  0  0
   -0.9342   18.3982   18.4286 C   0  0  0  0  0  0  0  0  0  0  0  0
   -0.6623   17.2998   19.2455 C   0  0  0  0  0  0  0  0  0  0  0  0
  9 10  1  0  0  0
 10 11  2  0  0  0
 11 12  1  0  0  0
 12 13  2  0  0  0
 13 14  1  0  0  0
 14  1  1  0  0  0
  1  2  2  0  0  0
  1  3  1  0  0  0
  3  4  1  0  0  0
  4  5  1  0  0  0
  5  6  1  0  0  0
  6 16  1  0  0  0
 16 17  1  0  0  0
 17 18  1  0  0  0
 18 19  2  0  0  0
 19 20  1  0  0  0
 20 21  2  0  0  0
 21 22  1  0  0  0
 22 23  2  0  0  0
  6  7  1  0  0  0
  7  8  1  0  0  0
 14 15  2  0  0  0
 15 10  1  0  0  0
  8  3  1  0  0  0
 23 18  1  0  0  0
M  END
> <minimizedAffinity>
-8.26706

$$$$
OCNT-2311376


 24 26  0  0  0  0  0  0  0  0999 V2000
    3.0907   18.8374   19.7114 N   0  0  0  0  0  0  0  0  0  0  0  0
    2.6509   20.1488   19.6258 C   0  0  0  0  0  0  0  0  0  0  0  0
    1.6365   20.5186   19.0364 O   0  0  0  0  0  0  0  0  0  0  0  0
    3.4238   21.0970   20.2367 N   0  0  0  0  0  0  0  0  0  0  0  0
    4.6137   20.8226   20.9005 C   0  0  0  0  0  0  0  0  0  0  0  0
    5.3366   21.8564   21.4960 C   0  0  0  0  0  0  0  0  0  0  0  0
    6.5344   21.5703   22.1553 C   0  0  0  0  0  0  0  0  0  0  0  0
    7.0061   20.2577   22.2169 C   0  0  0  0  0  0  0  0  0  0  0  0
    6.2799   19.2268   21.6189 C   0  0  0  0  0  0  0  0  0  0  0  0
    5.0801   19.5157   20.9601 C   0  0  0  0  0  0  0  0  0  0  0  0
    4.2843   18.4521   20.3180 C   0  0  0  0  0  0  0  0  0  0  0  0
    4.7046   17.2975   20.3560 O   0  0  0  0  0  0  0  0  0  0  0  0
    3.0755   22.0441   20.1674 H   0  0  0  0  0  0  0  0  0  0  0  0
    2.2754   17.8036   19.0746 C   0  0  0  0  0  0  0  0  0  0  0  0
    0.7019   15.9083   19.7538 C   0  0  0  0  0  0  0  0  0  0  0  0
    0.3538   14.8821   20.6519 C   0  0  0  0  0  0  0  0  0  0  0  0
    1.1348   14.6078   21.7745 C   0  0  0  0  0  0  0  0  0  0  0  0
    2.2818   15.3526   22.0162 C   0  0  0  0  0  0  0  0  0  0  0  0
    2.6378   16.3816   21.1447 C   0  0  0  0  0  0  0  0  0  0  0  0
    1.8462   16.6928   20.0213 C   0  0  0  0  0  0  0  0  0  0  0  0
   -0.0806   16.1809   18.6044 N   0  0  0  0  0  0  0  0  0  0  0  0
   -0.6964   14.9780   18.0354 C   0  0  0  0  0  0  0  0  0  0  0  0
   -1.1438   18.1738   17.6216 C   0  0  0  0  0  0  0  0  0  0  0  0
   -1.0089   17.3004   18.8607 C   0  0  0  0  0  0  0  0  0  0  0  0
 23 24  1  0  0  0
 24 21  1  0  0  0
 21 22  1  0  0  0
 21 15  1  0  0  0
 15 16  2  0  0  0
 16 17  1  0  0  0
 17 18  2  0  0  0
 18 19  1  0  0  0
 19 20  2  0  0  0
 20 14  1  0  0  0
 14  1  1  0  0  0
  1  2  1  0  0  0
  2  3  2  0  0  0
  2  4  1  0  0  0
  4  5  1  0  0  0
  5  6  2  0  0  0
  6  7  1  0  0  0
  7  8  2  0  0  0
  8  9  1  0  0  0
  9 10  2  0  0  0
 10 11  1  0  0  0
 11 12  2  0  0  0
 20 15  1  0  0  0
 11  1  1  0  0  0
 10  5  1  0  0  0
  4 13  1  0  0  0
M  END
> <minimizedAffinity>
-9.31627

$$$$
OCNT-2311387


 24 27  0  0  0  0  0  0  0  0999 V2000
    3.0447   16.7095   20.8974 N   0  0  0  0  0  0  0  0  0  0  0  0
    4.2877   16.7499   21.6898 C   0  0  0  0  0  0  0  0  0  0  0  0
    4.5927   18.1578   22.2593 C   0  0  0  0  0  0  0  0  0  0  0  0
    4.5743   19.2086   21.2264 N   0  0  0  0  0  0  0  0  0  0  0  0
    3.7941   18.9068   20.0099 C   0  0  0  0  0  0  0  0  0  0  0  0
    2.5895   18.0021   20.3431 C   0  0  0  0  0  0  0  0  0  0  0  0
   -0.6022   13.5599   19.2843 Cl  0  0  0  0  0  0  0  0  0  0  0  0
    0.3009   14.2944   20.5676 C   0  0  0  0  0  0  0  0  0  0  0  0
    1.3013   15.1883   20.2099 C   0  0  0  0  0  0  0  0  0  0  0  0
    2.0489   15.7920   21.2042 C   0  0  0  0  0  0  0  0  0  0  0  0
    1.7841   15.5333   22.4999 N   0  0  0  0  0  0  0  0  0  0  0  0
    0.8295   14.6772   22.8635 C   0  0  0  0  0  0  0  0  0  0  0  0
    0.6568   14.4782   24.1724 N   0  0  0  0  0  0  0  0  0  0  0  0
   -0.2962   13.6205   24.5947 C   0  0  0  0  0  0  0  0  0  0  0  0
   -1.1221   12.9183   23.7467 C   0  0  0  0  0  0  0  0  0  0  0  0
   -0.9512   13.1166   22.3858 C   0  0  0  0  0  0  0  0  0  0  0  0
    0.0407   14.0110   21.9182 C   0  0  0  0  0  0  0  0  0  0  0  0
    5.6863   20.0209   21.0519 C   0  0  0  0  0  0  0  0  0  0  0  0
    5.6368   21.1393   20.2149 C   0  0  0  0  0  0  0  0  0  0  0  0
    6.7685   21.9377   20.0312 C   0  0  0  0  0  0  0  0  0  0  0  0
    7.9408   21.5968   20.6828 C   0  0  0  0  0  0  0  0  0  0  0  0
    9.4998   22.6321   20.4747 Br  0  0  0  0  0  0  0  0  0  0  0  0
    7.9327   20.4702   21.4815 C   0  0  0  0  0  0  0  0  0  0  0  0
    6.8423   19.6862   21.6685 N   0  0  0  0  0  0  0  0  0  0  0  0
  7  8  1  0  0  0
  8  9  1  0  0  0
  9 10  2  0  0  0
 10  1  1  0  0  0
  1  2  1  0  0  0
  2  3  1  0  0  0
  3  4  1  0  0  0
  4 18  1  0  0  0
 18 19  2  0  0  0
 19 20  1  0  0  0
 20 21  2  0  0  0
 21 22  1  0  0  0
 21 23  1  0  0  0
 23 24  2  0  0  0
  4  5  1  0  0  0
  5  6  1  0  0  0
 10 11  1  0  0  0
 11 12  2  0  0  0
 12 13  1  0  0  0
 13 14  2  0  0  0
 14 15  1  0  0  0
 15 16  2  0  0  0
 16 17  1  0  0  0
 17  8  2  0  0  0
  6  1  1  0  0  0
 17 12  1  0  0  0
 24 18  1  0  0  0
M  END
> <minimizedAffinity>
0.76241

$$$$
OCNT-2311399


 25 27  0  0  0  0  0  0  0  0999 V2000
    2.4449   17.4114   20.1360 N   0  0  0  0  0  0  0  0  0  0  0  0
    2.3745   18.6967   19.6287 C   0  0  0  0  0  0  0  0  0  0  0  0
    1.5526   19.1327   18.8328 O   0  0  0  0  0  0  0  0  0  0  0  0
    3.2781   17.1829   20.6588 H   0  0  0  0  0  0  0  0  0  0  0  0
    3.4600   19.6107   20.0852 C   0  0  0  0  0  0  0  0  0  0  0  0
    3.5062   20.9533   19.7028 C   0  0  0  0  0  0  0  0  0  0  0  0
    4.5480   21.7699   20.1591 C   0  0  0  0  0  0  0  0  0  0  0  0
    5.5552   21.2824   20.9814 C   0  0  0  0  0  0  0  0  0  0  0  0
    6.5282   22.1118   21.3933 N   0  0  0  0  0  0  0  0  0  0  0  0
    7.5001   21.6047   22.1842 C   0  0  0  0  0  0  0  0  0  0  0  0
    7.5512   20.2862   22.5949 C   0  0  0  0  0  0  0  0  0  0  0  0
    6.5420   19.4316   22.1693 C   0  0  0  0  0  0  0  0  0  0  0  0
    5.5168   19.9200   21.3489 C   0  0  0  0  0  0  0  0  0  0  0  0
    4.4748   19.0919   20.8959 C   0  0  0  0  0  0  0  0  0  0  0  0
    2.3638   15.2689   22.0928 C   0  0  0  0  0  0  0  0  0  0  0  0
    1.4856   15.2981   20.8697 C   0  0  0  0  0  0  0  0  0  0  0  0
    0.5895   14.2331   20.6727 C   0  0  0  0  0  0  0  0  0  0  0  0
   -0.2498   14.1996   19.5607 C   0  0  0  0  0  0  0  0  0  0  0  0
   -0.2170   15.2359   18.6235 C   0  0  0  0  0  0  0  0  0  0  0  0
    0.6829   16.2990   18.8151 C   0  0  0  0  0  0  0  0  0  0  0  0
    1.5386   16.3448   19.9234 C   0  0  0  0  0  0  0  0  0  0  0  0
   -1.1091   15.2158   17.4073 C   0  0  0  0  0  0  0  0  0  0  0  0
   -1.7011   14.0068   17.2017 F   0  0  0  0  0  0  0  0  0  0  0  0
   -0.4464   15.5012   16.2498 F   0  0  0  0  0  0  0  0  0  0  0  0
   -2.1205   16.1237   17.4868 F   0  0  0  0  0  0  0  0  0  0  0  0
 15 16  1  0  0  0
 16 17  1  0  0  0
 17 18  2  0  0  0
 18 19  1  0  0  0
 19 22  1  0  0  0
 22 23  1  0  0  0
 22 24  1  0  0  0
 22 25  1  0  0  0
 19 20  2  0  0  0
 20 21  1  0  0  0
 21  1  1  0  0  0
  1  2  1  0  0  0
  2  3  2  0  0  0
  2  5  1  0  0  0
  5  6  2  0  0  0
  6  7  1  0  0  0
  7  8  2  0  0  0
  8  9  1  0  0  0
  9 10  2  0  0  0
 10 11  1  0  0  0
 11 12  2  0  0  0
 12 13  1  0  0  0
 13 14  2  0  0  0
 21 16  2  0  0  0
 14  5  1  0  0  0
 13  8  1  0  0  0
  1  4  1  0  0  0
M  END
> <minimizedAffinity>
-9.01325

$$$$
OCNT-2311403


 26 29  0  0  0  0  0  0  0  0999 V2000
    0.8476   15.3905   20.4063 C   0  0  0  0  0  0  0  0  0  0  0  0
    0.3814   14.4681   21.0680 O   0  0  0  0  0  0  0  0  0  0  0  0
    2.0274   16.0173   20.7463 N   0  0  0  0  0  0  0  0  0  0  0  0
    2.4645   16.6062   20.0519 H   0  0  0  0  0  0  0  0  0  0  0  0
   -0.7964   13.6723   18.1302 C   0  0  0  0  0  0  0  0  0  0  0  0
   -0.4765   15.1219   18.2237 C   0  0  0  0  0  0  0  0  0  0  0  0
    0.2360   15.8648   19.1642 C   0  0  0  0  0  0  0  0  0  0  0  0
    0.2967   17.2121   18.6656 C   0  0  0  0  0  0  0  0  0  0  0  0
    0.8844   18.4074   19.1338 C   0  0  0  0  0  0  0  0  0  0  0  0
    0.7409   19.5874   18.3953 C   0  0  0  0  0  0  0  0  0  0  0  0
    0.0215   19.5935   17.2037 C   0  0  0  0  0  0  0  0  0  0  0  0
   -0.5711   18.4253   16.7162 C   0  0  0  0  0  0  0  0  0  0  0  0
   -0.4154   17.2546   17.4689 C   0  0  0  0  0  0  0  0  0  0  0  0
   -0.8750   15.9840   17.2295 N   0  0  0  0  0  0  0  0  0  0  0  0
   -1.4070   15.7214   16.4111 H   0  0  0  0  0  0  0  0  0  0  0  0
    2.8098   15.5966   21.8934 C   0  0  0  0  0  0  0  0  0  0  0  0
    4.2977   15.9080   21.7361 C   0  0  0  0  0  0  0  0  0  0  0  0
    4.5143   17.3788   21.5750 C   0  0  0  0  0  0  0  0  0  0  0  0
    4.0920   18.0756   20.5364 N   0  0  0  0  0  0  0  0  0  0  0  0
    4.4453   19.3946   20.7084 C   0  0  0  0  0  0  0  0  0  0  0  0
    5.1273   19.6868   21.8680 C   0  0  0  0  0  0  0  0  0  0  0  0
    5.6305   21.0359   22.2362 C   0  0  0  0  0  0  0  0  0  0  0  0
    4.9664   22.0208   21.4122 O   0  0  0  0  0  0  0  0  0  0  0  0
    4.9849   21.6874   20.0105 C   0  0  0  0  0  0  0  0  0  0  0  0
    4.1067   20.4580   19.7279 C   0  0  0  0  0  0  0  0  0  0  0  0
    5.3513   18.2781   22.7889 S   0  0  0  0  0  0  0  0  0  0  0  0
  5  6  1  0  0  0
  6  7  2  0  0  0
  7  1  1  0  0  0
  1  2  2  0  0  0
  1  3  1  0  0  0
  3 16  1  0  0  0
 16 17  1  0  0  0
 17 18  1  0  0  0
 18 19  2  0  0  0
 19 20  1  0  0  0
 20 21  2  0  0  0
 21 22  1  0  0  0
 22 23  1  0  0  0
 23 24  1  0  0  0
 24 25  1  0  0  0
 21 26  1  0  0  0
  7  8  1  0  0  0
  8  9  2  0  0  0
  9 10  1  0  0  0
 10 11  2  0  0  0
 11 12  1  0  0  0
 12 13  2  0  0  0
 13 14  1  0  0  0
 14  6  1  0  0  0
 26 18  1  0  0  0
 13  8  1  0  0  0
 25 20  1  0  0  0
  3  4  1  0  0  0
 14 15  1  0  0  0
M  END
> <minimizedAffinity>
-10.20663

$$$$
OCNT-2311413


 22 24  0  0  0  0  0  0  0  0999 V2000
    2.5906   16.2905   21.0859 C   0  0  0  0  0  0  0  0  0  0  0  0
    2.9477   17.5331   20.8607 N   0  0  0  0  0  0  0  0  0  0  0  0
    4.2111   17.5853   21.4098 C   0  0  0  0  0  0  0  0  0  0  0  0
    4.6088   16.4300   21.9685 N   0  0  0  0  0  0  0  0  0  0  0  0
    3.5336   15.5707   21.7560 O   0  0  0  0  0  0  0  0  0  0  0  0
    5.0206   18.7989   21.3789 C   0  0  0  0  0  0  0  0  0  0  0  0
    6.2261   18.8866   22.0993 C   0  0  0  0  0  0  0  0  0  0  0  0
    6.9956   20.0542   22.0640 C   0  0  0  0  0  0  0  0  0  0  0  0
    6.5621   21.1371   21.3086 C   0  0  0  0  0  0  0  0  0  0  0  0
    7.3003   22.2548   21.2773 F   0  0  0  0  0  0  0  0  0  0  0  0
    5.3739   21.0617   20.5929 C   0  0  0  0  0  0  0  0  0  0  0  0
    4.9588   22.1084   19.8659 F   0  0  0  0  0  0  0  0  0  0  0  0
    4.6019   19.9037   20.6219 C   0  0  0  0  0  0  0  0  0  0  0  0
    1.3297   15.5914   20.7409 C   0  0  0  0  0  0  0  0  0  0  0  0
   -0.3753   17.4094   17.1921 N   0  0  0  0  0  0  0  0  0  0  0  0
   -1.0868   16.2554   17.7327 C   0  0  0  0  0  0  0  0  0  0  0  0
   -0.1612   15.4588   18.6573 C   0  0  0  0  0  0  0  0  0  0  0  0
    0.4214   16.3557   19.7636 C   0  0  0  0  0  0  0  0  0  0  0  0
    1.1078   17.5824   19.1379 C   0  0  0  0  0  0  0  0  0  0  0  0
    0.1623   18.3275   18.1915 C   0  0  0  0  0  0  0  0  0  0  0  0
   -2.2857   18.8326   16.7140 C   0  0  0  0  0  0  0  0  0  0  0  0
   -1.1434   18.1514   16.1998 O   0  0  0  0  0  0  0  0  0  0  0  0
 21 22  1  0  0  0
 22 15  1  0  0  0
 15 16  1  0  0  0
 16 17  1  0  0  0
 17 18  1  0  0  0
 18 14  1  0  0  0
 14  1  1  0  0  0
  1  2  2  0  0  0
  2  3  1  0  0  0
  3  6  1  0  0  0
  6  7  1  0  0  0
  7  8  2  0  0  0
  8  9  1  0  0  0
  9 10  1  0  0  0
  9 11  2  0  0  0
 11 12  1  0  0  0
 11 13  1  0  0  0
  3  4  2  0  0  0
  4  5  1  0  0  0
 18 19  1  0  0  0
 19 20  1  0  0  0
 20 15  1  0  0  0
  5  1  1  0  0  0
 13  6  2  0  0  0
M  END
> <minimizedAffinity>
-10.58711

$$$$
OCNT-2311427


 21 22  0  0  0  0  0  0  0  0999 V2000
    0.9240   16.3871   19.8558 N   0  0  0  0  0  0  0  0  0  0  0  0
    1.5869   17.5574   19.6207 C   0  0  0  0  0  0  0  0  0  0  0  0
    2.6710   17.5039   20.4689 C   0  0  0  0  0  0  0  0  0  0  0  0
    2.6193   16.3302   21.1807 N   0  0  0  0  0  0  0  0  0  0  0  0
    1.5476   15.6520   20.7942 N   0  0  0  0  0  0  0  0  0  0  0  0
    3.7208   18.4965   20.6274 C   0  0  0  0  0  0  0  0  0  0  0  0
    3.7663   19.5987   19.7616 C   0  0  0  0  0  0  0  0  0  0  0  0
    4.7636   20.5719   19.8865 C   0  0  0  0  0  0  0  0  0  0  0  0
    5.7372   20.4687   20.8886 C   0  0  0  0  0  0  0  0  0  0  0  0
    5.6993   19.3643   21.7516 C   0  0  0  0  0  0  0  0  0  0  0  0
    4.7003   18.3916   21.6243 C   0  0  0  0  0  0  0  0  0  0  0  0
    6.8274   21.5045   21.0127 C   0  0  0  0  0  0  0  0  0  0  0  0
    6.5853   22.6045   20.2476 F   0  0  0  0  0  0  0  0  0  0  0  0
    6.9920   21.9620   22.2853 F   0  0  0  0  0  0  0  0  0  0  0  0
    8.0492   21.0421   20.6247 F   0  0  0  0  0  0  0  0  0  0  0  0
   -0.3163   15.9225   19.2358 C   0  0  0  0  0  0  0  0  0  0  0  0
   -0.9037   13.9576   17.7114 C   0  0  0  0  0  0  0  0  0  0  0  0
   -0.2999   14.3940   19.0396 C   0  0  0  0  0  0  0  0  0  0  0  0
   -0.5554   16.6892   17.9245 C   0  0  0  0  0  0  0  0  0  0  0  0
   -1.6160   17.6440   18.0691 O   0  0  0  0  0  0  0  0  0  0  0  0
   -1.5809   18.6691   17.0842 C   0  0  0  0  0  0  0  0  0  0  0  0
 17 18  1  0  0  0
 18 16  1  0  0  0
 16 19  1  0  0  0
 19 20  1  0  0  0
 20 21  1  0  0  0
 16  1  1  0  0  0
  1  2  1  0  0  0
  2  3  2  0  0  0
  3  6  1  0  0  0
  6  7  1  0  0  0
  7  8  2  0  0  0
  8  9  1  0  0  0
  9 12  1  0  0  0
 12 13  1  0  0  0
 12 14  1  0  0  0
 12 15  1  0  0  0
  9 10  2  0  0  0
 10 11  1  0  0  0
  3  4  1  0  0  0
  4  5  2  0  0  0
  5  1  1  0  0  0
 11  6  2  0  0  0
M  END
> <minimizedAffinity>
-9.88333

$$$$
OCNT-2311453


 23 25  0  0  0  0  0  0  0  0999 V2000
    3.8139   16.1623   21.6154 C   0  0  0  0  0  0  0  0  0  0  0  0
    2.5002   16.3926   21.2641 C   0  0  0  0  0  0  0  0  0  0  0  0
    1.9024   15.1801   21.4141 N   0  0  0  0  0  0  0  0  0  0  0  0
    2.7756   14.2505   21.8373 N   0  0  0  0  0  0  0  0  0  0  0  0
    3.9558   14.8421   21.9632 N   0  0  0  0  0  0  0  0  0  0  0  0
    4.9794   17.0861   21.6595 C   0  0  0  0  0  0  0  0  0  0  0  0
    4.5850   18.4037   22.0564 O   0  0  0  0  0  0  0  0  0  0  0  0
    4.8593   20.2247   20.5889 C   0  0  0  0  0  0  0  0  0  0  0  0
    5.5828   21.3267   20.1111 C   0  0  0  0  0  0  0  0  0  0  0  0
    6.8015   21.6705   20.6931 C   0  0  0  0  0  0  0  0  0  0  0  0
    7.2993   20.9155   21.7520 C   0  0  0  0  0  0  0  0  0  0  0  0
    6.5836   19.8148   22.2340 C   0  0  0  0  0  0  0  0  0  0  0  0
    5.3591   19.4601   21.6577 C   0  0  0  0  0  0  0  0  0  0  0  0
    2.5968   19.6507   19.4496 N   0  0  0  0  0  0  0  0  0  0  0  0
    3.6067   19.8959   19.9686 C   0  0  0  0  0  0  0  0  0  0  0  0
    0.5191   14.8339   21.1763 C   0  0  0  0  0  0  0  0  0  0  0  0
    0.2543   14.5501   19.7010 C   0  0  0  0  0  0  0  0  0  0  0  0
   -0.1945   15.7934   18.9750 C   0  0  0  0  0  0  0  0  0  0  0  0
   -0.1959   17.0334   19.6279 C   0  0  0  0  0  0  0  0  0  0  0  0
   -0.5874   18.1882   18.9492 C   0  0  0  0  0  0  0  0  0  0  0  0
   -0.9771   18.1148   17.6133 C   0  0  0  0  0  0  0  0  0  0  0  0
   -0.9755   16.8869   16.9542 C   0  0  0  0  0  0  0  0  0  0  0  0
   -0.5844   15.7303   17.6305 C   0  0  0  0  0  0  0  0  0  0  0  0
 14 15  3  0  0  0
 15  8  1  0  0  0
  8  9  2  0  0  0
  9 10  1  0  0  0
 10 11  2  0  0  0
 11 12  1  0  0  0
 12 13  2  0  0  0
 13  7  1  0  0  0
  7  6  1  0  0  0
  6  1  1  0  0  0
  1  2  2  0  0  0
  2  3  1  0  0  0
  3 16  1  0  0  0
 16 17  1  0  0  0
 17 18  1  0  0  0
 18 19  2  0  0  0
 19 20  1  0  0  0
 20 21  2  0  0  0
 21 22  1  0  0  0
 22 23  2  0  0  0
  3  4  1  0  0  0
  4  5  2  0  0  0
 13  8  1  0  0  0
  5  1  1  0  0  0
 23 18  1  0  0  0
M  END
> <minimizedAffinity>
-9.96055

$$$$
OCNT-2311473


 24 26  0  0  0  0  0  0  0  0999 V2000
    2.4390   16.0427   21.5670 N   0  0  0  0  0  0  0  0  0  0  0  0
    3.8155   16.1437   21.6332 C   0  0  0  0  0  0  0  0  0  0  0  0
    4.5289   15.1605   21.8260 O   0  0  0  0  0  0  0  0  0  0  0  0
    1.9258   16.9301   21.5761 H   0  0  0  0  0  0  0  0  0  0  0  0
    4.2959   17.5158   21.4880 C   0  0  0  0  0  0  0  0  0  0  0  0
    3.8505   18.3261   20.5467 N   0  0  0  0  0  0  0  0  0  0  0  0
    4.4474   19.5699   20.6787 C   0  0  0  0  0  0  0  0  0  0  0  0
    4.2180   20.6971   19.8778 C   0  0  0  0  0  0  0  0  0  0  0  0
    4.8727   21.8633   20.1110 N   0  0  0  0  0  0  0  0  0  0  0  0
    5.7537   21.9232   21.1310 C   0  0  0  0  0  0  0  0  0  0  0  0
    6.0494   20.8710   21.9810 C   0  0  0  0  0  0  0  0  0  0  0  0
    5.3642   19.6801   21.7266 C   0  0  0  0  0  0  0  0  0  0  0  0
    5.4530   18.1738   22.5598 S   0  0  0  0  0  0  0  0  0  0  0  0
    1.7245   14.8617   21.9855 C   0  0  0  0  0  0  0  0  0  0  0  0
    0.9429   14.2264   20.8370 C   0  0  0  0  0  0  0  0  0  0  0  0
   -0.1363   15.1532   20.2574 C   0  0  0  0  0  0  0  0  0  0  0  0
   -0.7730   14.8421   17.8817 C   0  0  0  0  0  0  0  0  0  0  0  0
    0.1425   15.4729   18.8418 N   0  0  0  0  0  0  0  0  0  0  0  0
    0.2665   16.8636   18.6067 C   0  0  0  0  0  0  0  0  0  0  0  0
   -0.0704   17.3745   17.3496 C   0  0  0  0  0  0  0  0  0  0  0  0
    0.0100   18.7448   17.1083 C   0  0  0  0  0  0  0  0  0  0  0  0
    0.4202   19.5864   18.1293 C   0  0  0  0  0  0  0  0  0  0  0  0
    0.7259   19.0152   19.3498 C   0  0  0  0  0  0  0  0  0  0  0  0
    0.6532   17.6889   19.6038 N   0  0  0  0  0  0  0  0  0  0  0  0
 17 18  1  0  0  0
 18 16  1  0  0  0
 16 15  1  0  0  0
 15 14  1  0  0  0
 14  1  1  0  0  0
  1  2  1  0  0  0
  2  3  2  0  0  0
  2  5  1  0  0  0
  5  6  2  0  0  0
  6  7  1  0  0  0
  7  8  2  0  0  0
  8  9  1  0  0  0
  9 10  2  0  0  0
 10 11  1  0  0  0
 11 12  2  0  0  0
 12 13  1  0  0  0
 18 19  1  0  0  0
 19 20  2  0  0  0
 20 21  1  0  0  0
 21 22  2  0  0  0
 22 23  1  0  0  0
 23 24  2  0  0  0
 13  5  1  0  0  0
 24 19  1  0  0  0
 12  7  1  0  0  0
  1  4  1  0  0  0
M  END
> <minimizedAffinity>
-8.96080

$$$$
OCNT-2311487


 23 25  0  0  0  0  0  0  0  0999 V2000
    0.1564   18.1399   18.8401 N   0  0  0  0  0  0  0  0  0  0  0  0
   -1.0514   17.8438   18.0574 C   0  0  0  0  0  0  0  0  0  0  0  0
   -0.8170   18.5107   16.7040 C   0  0  0  0  0  0  0  0  0  0  0  0
    0.1360   19.6461   17.0276 C   0  0  0  0  0  0  0  0  0  0  0  0
    1.0718   19.0034   18.0633 C   0  0  0  0  0  0  0  0  0  0  0  0
    1.8266   15.0858   21.1345 C   0  0  0  0  0  0  0  0  0  0  0  0
    0.6676   14.8343   20.4122 C   0  0  0  0  0  0  0  0  0  0  0  0
    0.1128   15.8557   19.6391 C   0  0  0  0  0  0  0  0  0  0  0  0
    0.7206   17.1063   19.5814 C   0  0  0  0  0  0  0  0  0  0  0  0
    1.8421   17.3071   20.3047 N   0  0  0  0  0  0  0  0  0  0  0  0
    2.4090   16.3012   21.0732 N   0  0  0  0  0  0  0  0  0  0  0  0
    2.0456   12.7531   21.6251 F   0  0  0  0  0  0  0  0  0  0  0  0
    2.4648   14.0049   21.9732 C   0  0  0  0  0  0  0  0  0  0  0  0
    3.8253   13.9737   21.9129 F   0  0  0  0  0  0  0  0  0  0  0  0
    2.1602   14.1256   23.3019 F   0  0  0  0  0  0  0  0  0  0  0  0
    1.7666   20.0625   18.9302 C   0  0  0  0  0  0  0  0  0  0  0  0
    3.1715   20.0601   18.6274 O   0  0  0  0  0  0  0  0  0  0  0  0
    3.9440   20.3639   19.7145 C   0  0  0  0  0  0  0  0  0  0  0  0
    4.3324   21.6704   20.0244 C   0  0  0  0  0  0  0  0  0  0  0  0
    5.1518   21.9060   21.1292 C   0  0  0  0  0  0  0  0  0  0  0  0
    5.5923   20.8351   21.9126 C   0  0  0  0  0  0  0  0  0  0  0  0
    5.2219   19.5284   21.5890 C   0  0  0  0  0  0  0  0  0  0  0  0
    4.4024   19.2921   20.4848 C   0  0  0  0  0  0  0  0  0  0  0  0
 12 13  1  0  0  0
 13 14  1  0  0  0
 13 15  1  0  0  0
 13  6  1  0  0  0
  6  7  2  0  0  0
  7  8  1  0  0  0
  8  9  2  0  0  0
  9  1  1  0  0  0
  1  2  1  0  0  0
  2  3  1  0  0  0
  3  4  1  0  0  0
  4  5  1  0  0  0
  5 16  1  0  0  0
 16 17  1  0  0  0
 17 18  1  0  0  0
 18 19  2  0  0  0
 19 20  1  0  0  0
 20 21  2  0  0  0
 21 22  1  0  0  0
 22 23  2  0  0  0
  9 10  1  0  0  0
 10 11  2  0  0  0
 11  6  1  0  0  0
  5  1  1  0  0  0
 23 18  1  0  0  0
M  END
> <minimizedAffinity>
-9.77045

$$$$
OCNT-2311493


 27 30  0  0  0  0  0  0  0  0999 V2000
    1.7230   17.5270   19.2448 C   0  0  0  0  0  0  0  0  0  0  0  0
    1.2101   17.5047   18.1299 O   0  0  0  0  0  0  0  0  0  0  0  0
    1.5552   16.5191   20.1919 N   0  0  0  0  0  0  0  0  0  0  0  0
    2.3098   16.4168   21.4456 C   0  0  0  0  0  0  0  0  0  0  0  0
    2.5949   14.9634   21.8077 C   0  0  0  0  0  0  0  0  0  0  0  0
    1.3063   14.1370   21.9373 C   0  0  0  0  0  0  0  0  0  0  0  0
    0.1450   14.7333   21.1288 C   0  0  0  0  0  0  0  0  0  0  0  0
    0.6398   15.4272   19.8713 C   0  0  0  0  0  0  0  0  0  0  0  0
    0.8886   20.2248   18.4534 C   0  0  0  0  0  0  0  0  0  0  0  0
    2.1538   19.9901   19.2314 C   0  0  0  0  0  0  0  0  0  0  0  0
    2.8724   21.1045   19.5250 N   0  0  0  0  0  0  0  0  0  0  0  0
    4.0032   20.8972   20.2413 C   0  0  0  0  0  0  0  0  0  0  0  0
    4.4329   19.6449   20.6632 C   0  0  0  0  0  0  0  0  0  0  0  0
    3.7080   18.4933   20.3549 C   0  0  0  0  0  0  0  0  0  0  0  0
    2.5435   18.6983   19.6047 C   0  0  0  0  0  0  0  0  0  0  0  0
    5.5912   19.8834   21.3588 N   0  0  0  0  0  0  0  0  0  0  0  0
    6.4317   18.9100   22.0148 C   0  0  0  0  0  0  0  0  0  0  0  0
    5.9563   21.1836   21.3888 N   0  0  0  0  0  0  0  0  0  0  0  0
    4.9757   21.7968   20.7162 C   0  0  0  0  0  0  0  0  0  0  0  0
    0.8725   14.1037   23.3044 O   0  0  0  0  0  0  0  0  0  0  0  0
   -0.2846   13.4487   23.6185 C   0  0  0  0  0  0  0  0  0  0  0  0
   -1.1519   14.1709   24.4447 C   0  0  0  0  0  0  0  0  0  0  0  0
   -2.3697   13.6230   24.8544 C   0  0  0  0  0  0  0  0  0  0  0  0
   -2.7199   12.3418   24.4399 C   0  0  0  0  0  0  0  0  0  0  0  0
   -4.2165   11.6580   24.9401 Cl  0  0  0  0  0  0  0  0  0  0  0  0
   -1.8606   11.6087   23.6243 C   0  0  0  0  0  0  0  0  0  0  0  0
   -0.6411   12.1610   23.2152 C   0  0  0  0  0  0  0  0  0  0  0  0
  9 10  1  0  0  0
 10 11  2  0  0  0
 11 12  1  0  0  0
 12 13  2  0  0  0
 13 14  1  0  0  0
 14 15  2  0  0  0
 15  1  1  0  0  0
  1  2  2  0  0  0
  1  3  1  0  0  0
  3  4  1  0  0  0
  4  5  1  0  0  0
  5  6  1  0  0  0
  6 20  1  0  0  0
 20 21  1  0  0  0
 21 22  1  0  0  0
 22 23  2  0  0  0
 23 24  1  0  0  0
 24 25  1  0  0  0
 24 26  2  0  0  0
 26 27  1  0  0  0
  6  7  1  0  0  0
  7  8  1  0  0  0
 13 16  1  0  0  0
 16 17  1  0  0  0
 16 18  1  0  0  0
 18 19  2  0  0  0
 15 10  1  0  0  0
  8  3  1  0  0  0
 19 12  1  0  0  0
 27 21  2  0  0  0
M  END
> <minimizedAffinity>
-6.66414

$$$$
OCNT-2311508


 26 27  0  0  0  0  0  0  0  0999 V2000
    2.5878   15.9645   21.6705 N   0  0  0  0  0  0  0  0  0  0  0  0
    2.1553   16.7637   22.1373 H   0  0  0  0  0  0  0  0  0  0  0  0
    1.8011   14.5316   22.0177 S   0  0  0  0  0  0  0  0  0  0  0  0
    1.3604   14.6710   23.3891 O   0  0  0  0  0  0  0  0  0  0  0  0
    2.6326   13.4226   21.6111 O   0  0  0  0  0  0  0  0  0  0  0  0
    0.3515   14.6221   20.9832 C   0  0  0  0  0  0  0  0  0  0  0  0
    0.1605   18.2525   16.5278 C   0  0  0  0  0  0  0  0  0  0  0  0
   -0.2699   17.4333   17.7544 C   0  0  0  0  0  0  0  0  0  0  0  0
   -1.6627   17.9165   18.2030 C   0  0  0  0  0  0  0  0  0  0  0  0
   -0.3159   15.9363   17.3862 C   0  0  0  0  0  0  0  0  0  0  0  0
   -0.4703   15.0373   18.6135 C   0  0  0  0  0  0  0  0  0  0  0  0
    0.5654   15.3912   19.6876 C   0  0  0  0  0  0  0  0  0  0  0  0
    0.4500   16.7902   20.0077 O   0  0  0  0  0  0  0  0  0  0  0  0
    0.7446   17.6349   18.8931 C   0  0  0  0  0  0  0  0  0  0  0  0
    4.0488   15.9937   21.5911 C   0  0  0  0  0  0  0  0  0  0  0  0
    4.5768   17.4020   21.5007 C   0  0  0  0  0  0  0  0  0  0  0  0
    5.6983   17.7930   22.2441 C   0  0  0  0  0  0  0  0  0  0  0  0
    6.1759   19.1026   22.1740 C   0  0  0  0  0  0  0  0  0  0  0  0
    5.5299   20.0438   21.3707 C   0  0  0  0  0  0  0  0  0  0  0  0
    4.3930   19.6770   20.6419 C   0  0  0  0  0  0  0  0  0  0  0  0
    3.9255   18.3565   20.7047 C   0  0  0  0  0  0  0  0  0  0  0  0
    3.6611   20.6393   19.7755 C   0  0  0  0  0  0  0  0  0  0  0  0
    4.0226   21.9563   19.8442 N   0  0  0  0  0  0  0  0  0  0  0  0
    2.7417   20.2789   19.0510 O   0  0  0  0  0  0  0  0  0  0  0  0
    4.5568   22.3263   20.6168 H   0  0  0  0  0  0  0  0  0  0  0  0
    3.4241   22.6023   19.3449 H   0  0  0  0  0  0  0  0  0  0  0  0
  7  8  1  0  0  0
  8  9  1  0  0  0
  8 10  1  0  0  0
 10 11  1  0  0  0
 11 12  1  0  0  0
 12  6  1  0  0  0
  6  3  1  0  0  0
  3  4  2  0  0  0
  3  5  2  0  0  0
  3  1  1  0  0  0
  1 15  1  0  0  0
 15 16  1  0  0  0
 16 17  2  0  0  0
 17 18  1  0  0  0
 18 19  2  0  0  0
 19 20  1  0  0  0
 20 22  1  0  0  0
 22 23  1  0  0  0
 22 24  2  0  0  0
 20 21  2  0  0  0
 12 13  1  0  0  0
 13 14  1  0  0  0
 14  8  1  0  0  0
 21 16  1  0  0  0
  1  2  1  0  0  0
 23 25  1  0  0  0
 23 26  1  0  0  0
M  END
> <minimizedAffinity>
-8.98887

$$$$
OCNT-2311532


 23 25  0  0  0  0  0  0  0  0999 V2000
    2.1325   16.2536   20.8038 C   0  0  0  0  0  0  0  0  0  0  0  0
    1.9601   15.1521   21.6536 C   0  0  0  0  0  0  0  0  0  0  0  0
    0.9723   14.2097   21.3908 C   0  0  0  0  0  0  0  0  0  0  0  0
    0.8237   13.1634   22.2139 F   0  0  0  0  0  0  0  0  0  0  0  0
    0.1342   14.3307   20.2882 C   0  0  0  0  0  0  0  0  0  0  0  0
    0.2783   15.4178   19.4192 C   0  0  0  0  0  0  0  0  0  0  0  0
    1.2769   16.3718   19.6916 C   0  0  0  0  0  0  0  0  0  0  0  0
    4.2127   19.4412   20.5731 C   0  0  0  0  0  0  0  0  0  0  0  0
    5.1717   19.1853   21.5615 C   0  0  0  0  0  0  0  0  0  0  0  0
    5.1430   17.9966   22.2928 C   0  0  0  0  0  0  0  0  0  0  0  0
    4.1567   17.0414   22.0457 C   0  0  0  0  0  0  0  0  0  0  0  0
    3.1799   17.2550   21.0634 C   0  0  0  0  0  0  0  0  0  0  0  0
    3.2290   18.4586   20.3377 C   0  0  0  0  0  0  0  0  0  0  0  0
    4.8833   21.9274   20.3209 C   0  0  0  0  0  0  0  0  0  0  0  0
    4.2030   20.6980   19.7247 C   0  0  0  0  0  0  0  0  0  0  0  0
    2.8434   21.0370   19.4436 O   0  0  0  0  0  0  0  0  0  0  0  0
    2.8533   21.8110   18.8570 H   0  0  0  0  0  0  0  0  0  0  0  0
   -0.6276   15.5683   18.2234 C   0  0  0  0  0  0  0  0  0  0  0  0
   -0.6491   16.9334   17.7273 N   0  0  0  0  0  0  0  0  0  0  0  0
    0.3658   17.5760   17.0728 C   0  0  0  0  0  0  0  0  0  0  0  0
   -0.1073   18.8480   16.8495 C   0  0  0  0  0  0  0  0  0  0  0  0
   -1.3719   18.9932   17.3582 N   0  0  0  0  0  0  0  0  0  0  0  0
   -1.6721   17.8256   17.8813 C   0  0  0  0  0  0  0  0  0  0  0  0
 14 15  1  0  0  0
 15 16  1  0  0  0
 15  8  1  0  0  0
  8  9  2  0  0  0
  9 10  1  0  0  0
 10 11  2  0  0  0
 11 12  1  0  0  0
 12  1  1  0  0  0
  1  2  1  0  0  0
  2  3  2  0  0  0
  3  4  1  0  0  0
  3  5  1  0  0  0
  5  6  2  0  0  0
  6 18  1  0  0  0
 18 19  1  0  0  0
 19 20  1  0  0  0
 20 21  2  0  0  0
 21 22  1  0  0  0
 22 23  2  0  0  0
  6  7  1  0  0  0
 12 13  2  0  0  0
 13  8  1  0  0  0
  7  1  2  0  0  0
 23 19  1  0  0  0
 16 17  1  0  0  0
M  END
> <minimizedAffinity>
-11.26097

$$$$
OCNT-2311542


 26 28  0  0  0  0  0  0  0  0999 V2000
   -1.1294   15.6848   18.4885 O   0  0  0  0  0  0  0  0  0  0  0  0
   -0.3062   16.5518   18.1948 C   0  0  0  0  0  0  0  0  0  0  0  0
   -0.3862   17.0931   16.9360 N   0  0  0  0  0  0  0  0  0  0  0  0
    0.4383   18.1555   16.4170 C   0  0  0  0  0  0  0  0  0  0  0  0
    0.1673   19.4825   17.1179 C   0  0  0  0  0  0  0  0  0  0  0  0
    0.1588   19.3652   18.6425 C   0  0  0  0  0  0  0  0  0  0  0  0
    1.1906   18.4465   19.1180 N   0  0  0  0  0  0  0  0  0  0  0  0
    2.4852   18.8269   19.4621 C   0  0  0  0  0  0  0  0  0  0  0  0
    3.3396   18.0001   19.7808 O   0  0  0  0  0  0  0  0  0  0  0  0
    0.8707   16.9850   19.1259 C   0  0  0  0  0  0  0  0  0  0  0  0
   -1.1586   16.7402   16.3822 H   0  0  0  0  0  0  0  0  0  0  0  0
    2.7988   20.3176   19.4490 C   0  0  0  0  0  0  0  0  0  0  0  0
    4.3027   20.5921   19.5620 C   0  0  0  0  0  0  0  0  0  0  0  0
    4.7142   21.1974   20.9212 C   0  0  0  0  0  0  0  0  0  0  0  0
    6.0133   22.0107   20.7855 C   0  0  0  0  0  0  0  0  0  0  0  0
    7.2417   21.1137   20.6762 C   0  0  0  0  0  0  0  0  0  0  0  0
    7.3125   20.2179   21.7845 O   0  0  0  0  0  0  0  0  0  0  0  0
    6.1836   19.3487   21.8517 C   0  0  0  0  0  0  0  0  0  0  0  0
    4.8988   20.1501   22.0307 C   0  0  0  0  0  0  0  0  0  0  0  0
    0.6194   16.5067   20.5763 C   0  0  0  0  0  0  0  0  0  0  0  0
    1.6727   15.5493   21.0897 C   0  0  0  0  0  0  0  0  0  0  0  0
    2.9286   16.0133   21.5000 C   0  0  0  0  0  0  0  0  0  0  0  0
    3.8916   15.1226   21.9775 C   0  0  0  0  0  0  0  0  0  0  0  0
    3.6093   13.7599   22.0492 C   0  0  0  0  0  0  0  0  0  0  0  0
    2.3627   13.2868   21.6452 C   0  0  0  0  0  0  0  0  0  0  0  0
    1.3987   14.1763   21.1684 C   0  0  0  0  0  0  0  0  0  0  0  0
  1  2  2  0  0  0
  2  3  1  0  0  0
  3  4  1  0  0  0
  4  5  1  0  0  0
  5  6  1  0  0  0
  6  7  1  0  0  0
  7  8  1  0  0  0
  8  9  2  0  0  0
  8 12  1  0  0  0
 12 13  1  0  0  0
 13 14  1  0  0  0
 14 15  1  0  0  0
 15 16  1  0  0  0
 16 17  1  0  0  0
 17 18  1  0  0  0
 18 19  1  0  0  0
  7 10  1  0  0  0
 10 20  1  0  0  0
 20 21  1  0  0  0
 21 22  2  0  0  0
 22 23  1  0  0  0
 23 24  2  0  0  0
 24 25  1  0  0  0
 25 26  2  0  0  0
 10  2  1  0  0  0
 26 21  1  0  0  0
 19 14  1  0  0  0
  3 11  1  0  0  0
M  END
> <minimizedAffinity>
-7.88143

$$$$
OCNT-2311547


 24 27  0  0  0  0  0  0  0  0999 V2000
    2.5218   20.0092   19.4699 C   0  0  0  0  0  0  0  0  0  0  0  0
    1.2927   20.5111   19.2856 N   0  0  0  0  0  0  0  0  0  0  0  0
    0.4867   19.3820   19.1550 O   0  0  0  0  0  0  0  0  0  0  0  0
    1.3136   18.3036   19.2740 C   0  0  0  0  0  0  0  0  0  0  0  0
    2.5703   18.6411   19.4681 N   0  0  0  0  0  0  0  0  0  0  0  0
    0.7039   16.9844   19.1722 C   0  0  0  0  0  0  0  0  0  0  0  0
   -0.2542   16.7297   18.2136 C   0  0  0  0  0  0  0  0  0  0  0  0
   -0.7610   15.4555   18.2019 C   0  0  0  0  0  0  0  0  0  0  0  0
   -0.3691   14.4960   19.0579 N   0  0  0  0  0  0  0  0  0  0  0  0
    0.5650   14.8309   19.9670 C   0  0  0  0  0  0  0  0  0  0  0  0
    1.1271   16.0497   20.0528 N   0  0  0  0  0  0  0  0  0  0  0  0
    1.0654   13.7800   20.9337 C   0  0  0  0  0  0  0  0  0  0  0  0
    2.3000   14.1949   21.7381 C   0  0  0  0  0  0  0  0  0  0  0  0
    1.7723   14.8627   23.0094 C   0  0  0  0  0  0  0  0  0  0  0  0
    0.2874   14.5173   23.1002 C   0  0  0  0  0  0  0  0  0  0  0  0
    0.0396   13.4679   22.0231 C   0  0  0  0  0  0  0  0  0  0  0  0
    3.6189   20.7742   19.6425 N   0  0  0  0  0  0  0  0  0  0  0  0
    3.6260   21.6116   19.0733 H   0  0  0  0  0  0  0  0  0  0  0  0
    7.1041   20.5440   22.0347 C   0  0  0  0  0  0  0  0  0  0  0  0
    6.2124   19.4762   22.0226 C   0  0  0  0  0  0  0  0  0  0  0  0
    5.0542   19.5327   21.2383 C   0  0  0  0  0  0  0  0  0  0  0  0
    4.7644   20.6534   20.4528 C   0  0  0  0  0  0  0  0  0  0  0  0
    5.6798   21.7208   20.4806 C   0  0  0  0  0  0  0  0  0  0  0  0
    6.8380   21.6690   21.2624 C   0  0  0  0  0  0  0  0  0  0  0  0
 19 20  2  0  0  0
 20 21  1  0  0  0
 21 22  2  0  0  0
 22 17  1  0  0  0
 17  1  1  0  0  0
  1  2  2  0  0  0
  2  3  1  0  0  0
  3  4  1  0  0  0
  4  6  1  0  0  0
  6  7  1  0  0  0
  7  8  2  0  0  0
  8  9  1  0  0  0
  9 10  2  0  0  0
 10 12  1  0  0  0
 12 13  1  0  0  0
 13 14  1  0  0  0
 14 15  1  0  0  0
 15 16  1  0  0  0
 10 11  1  0  0  0
  4  5  2  0  0  0
 22 23  1  0  0  0
 23 24  2  0  0  0
 24 19  1  0  0  0
  5  1  1  0  0  0
 11  6  2  0  0  0
 16 12  1  0  0  0
 17 18  1  0  0  0
M  END
> <minimizedAffinity>
-10.05822

$$$$
OCNT-2311552


 27 30  0  0  0  0  0  0  0  0999 V2000
    0.2062   18.5045   19.0492 C   0  0  0  0  0  0  0  0  0  0  0  0
   -0.4064   18.9176   20.0289 O   0  0  0  0  0  0  0  0  0  0  0  0
    1.2266   19.2107   18.4684 N   0  0  0  0  0  0  0  0  0  0  0  0
    1.7938   18.8053   17.7329 H   0  0  0  0  0  0  0  0  0  0  0  0
   -1.2549   17.9928   16.1397 C   0  0  0  0  0  0  0  0  0  0  0  0
   -0.7302   17.0829   17.1768 C   0  0  0  0  0  0  0  0  0  0  0  0
   -0.1074   17.2559   18.3955 C   0  0  0  0  0  0  0  0  0  0  0  0
    0.0943   15.9275   18.8761 C   0  0  0  0  0  0  0  0  0  0  0  0
   -0.4090   15.0309   18.0076 N   0  0  0  0  0  0  0  0  0  0  0  0
   -0.9073   15.7567   16.9489 O   0  0  0  0  0  0  0  0  0  0  0  0
    0.7679   15.5030   20.1019 C   0  0  0  0  0  0  0  0  0  0  0  0
    0.2747   14.4413   20.8554 C   0  0  0  0  0  0  0  0  0  0  0  0
    0.9504   14.0744   22.0158 C   0  0  0  0  0  0  0  0  0  0  0  0
    2.0945   14.7708   22.3859 C   0  0  0  0  0  0  0  0  0  0  0  0
    2.5238   15.8055   21.5725 C   0  0  0  0  0  0  0  0  0  0  0  0
    1.8944   16.1827   20.4381 N   0  0  0  0  0  0  0  0  0  0  0  0
    1.7143   20.4358   19.0465 C   0  0  0  0  0  0  0  0  0  0  0  0
    2.9679   20.1337   19.7941 C   0  0  0  0  0  0  0  0  0  0  0  0
    3.9667   20.9663   20.0479 N   0  0  0  0  0  0  0  0  0  0  0  0
    4.8716   20.2350   20.7623 C   0  0  0  0  0  0  0  0  0  0  0  0
    4.4263   18.9484   20.9455 C   0  0  0  0  0  0  0  0  0  0  0  0
    5.1399   17.8635   21.6561 C   0  0  0  0  0  0  0  0  0  0  0  0
    6.2754   18.4751   22.5051 C   0  0  0  0  0  0  0  0  0  0  0  0
    7.0551   19.5793   21.7549 C   0  0  0  0  0  0  0  0  0  0  0  0
    6.1505   20.7498   21.3122 C   0  0  0  0  0  0  0  0  0  0  0  0
    3.2157   18.8863   20.3226 N   0  0  0  0  0  0  0  0  0  0  0  0
    2.6054   18.0830   20.2607 H   0  0  0  0  0  0  0  0  0  0  0  0
  5  6  1  0  0  0
  6  7  2  0  0  0
  7  1  1  0  0  0
  1  2  2  0  0  0
  1  3  1  0  0  0
  3 17  1  0  0  0
 17 18  1  0  0  0
 18 19  2  0  0  0
 19 20  1  0  0  0
 20 21  2  0  0  0
 21 22  1  0  0  0
 22 23  1  0  0  0
 23 24  1  0  0  0
 24 25  1  0  0  0
 21 26  1  0  0  0
  7  8  1  0  0  0
  8 11  1  0  0  0
 11 12  2  0  0  0
 12 13  1  0  0  0
 13 14  2  0  0  0
 14 15  1  0  0  0
 15 16  2  0  0  0
  8  9  2  0  0  0
  9 10  1  0  0  0
 10  6  1  0  0  0
 26 18  1  0  0  0
 16 11  1  0  0  0
 25 20  1  0  0  0
  3  4  1  0  0  0
 26 27  1  0  0  0
M  END
> <minimizedAffinity>
-9.43044

$$$$
OCNT-2311554


 26 28  0  0  0  0  0  0  0  0999 V2000
    1.7767   14.3775   20.8325 C   0  0  0  0  0  0  0  0  0  0  0  0
    0.1014   15.0855   20.9508 S   0  0  0  0  0  0  0  0  0  0  0  0
   -0.8772   13.6515   18.0064 C   0  0  0  0  0  0  0  0  0  0  0  0
   -0.4828   15.0681   18.2143 C   0  0  0  0  0  0  0  0  0  0  0  0
   -0.0800   15.7521   19.3427 C   0  0  0  0  0  0  0  0  0  0  0  0
    0.1516   17.1123   18.9898 C   0  0  0  0  0  0  0  0  0  0  0  0
    0.5529   18.2699   19.6908 C   0  0  0  0  0  0  0  0  0  0  0  0
    0.6962   19.4796   19.0018 C   0  0  0  0  0  0  0  0  0  0  0  0
    0.4459   19.5502   17.6338 C   0  0  0  0  0  0  0  0  0  0  0  0
    0.0437   18.4201   16.9157 C   0  0  0  0  0  0  0  0  0  0  0  0
   -0.0954   17.2182   17.6204 C   0  0  0  0  0  0  0  0  0  0  0  0
   -0.4819   15.9728   17.1793 N   0  0  0  0  0  0  0  0  0  0  0  0
   -0.7411   15.7643   16.2250 H   0  0  0  0  0  0  0  0  0  0  0  0
    2.7169   14.9543   21.8939 C   0  0  0  0  0  0  0  0  0  0  0  0
    2.8204   16.4077   21.8329 N   0  0  0  0  0  0  0  0  0  0  0  0
    4.0478   17.0059   21.6065 C   0  0  0  0  0  0  0  0  0  0  0  0
    5.0648   16.3633   21.3848 O   0  0  0  0  0  0  0  0  0  0  0  0
    3.9295   18.3815   21.6501 N   0  0  0  0  0  0  0  0  0  0  0  0
    2.2366   16.9032   22.4903 H   0  0  0  0  0  0  0  0  0  0  0  0
    2.9948   18.7588   21.6477 H   0  0  0  0  0  0  0  0  0  0  0  0
    5.0088   19.2384   21.5169 C   0  0  0  0  0  0  0  0  0  0  0  0
    6.2082   19.3170   22.1923 C   0  0  0  0  0  0  0  0  0  0  0  0
    6.8937   20.3971   21.6102 C   0  0  0  0  0  0  0  0  0  0  0  0
    6.1925   20.9781   20.6357 N   0  0  0  0  0  0  0  0  0  0  0  0
    5.0530   20.2598   20.5942 N   0  0  0  0  0  0  0  0  0  0  0  0
    4.0400   20.6138   19.6287 C   0  0  0  0  0  0  0  0  0  0  0  0
  3  4  1  0  0  0
  4  5  2  0  0  0
  5  2  1  0  0  0
  2  1  1  0  0  0
  1 14  1  0  0  0
 14 15  1  0  0  0
 15 16  1  0  0  0
 16 17  2  0  0  0
 16 18  1  0  0  0
 18 21  1  0  0  0
 21 22  2  0  0  0
 22 23  1  0  0  0
 23 24  2  0  0  0
 24 25  1  0  0  0
 25 26  1  0  0  0
  5  6  1  0  0  0
  6  7  2  0  0  0
  7  8  1  0  0  0
  8  9  2  0  0  0
  9 10  1  0  0  0
 10 11  2  0  0  0
 11 12  1  0  0  0
 12  4  1  0  0  0
 25 21  1  0  0  0
 11  6  1  0  0  0
 15 19  1  0  0  0
 18 20  1  0  0  0
 12 13  1  0  0  0
M  END
> <minimizedAffinity>
-8.11725

$$$$
OCNT-2311559


 28 30  0  0  0  0  0  0  0  0999 V2000
    0.2746   14.8790   19.6549 C   0  0  0  0  0  0  0  0  0  0  0  0
    0.7465   16.1929   19.8106 C   0  0  0  0  0  0  0  0  0  0  0  0
    0.4988   17.1814   18.8405 C   0  0  0  0  0  0  0  0  0  0  0  0
   -0.2487   16.8347   17.7050 C   0  0  0  0  0  0  0  0  0  0  0  0
   -0.7292   15.5328   17.5428 C   0  0  0  0  0  0  0  0  0  0  0  0
   -0.4652   14.5724   18.5126 C   0  0  0  0  0  0  0  0  0  0  0  0
   -0.9564   13.3354   18.3475 F   0  0  0  0  0  0  0  0  0  0  0  0
    1.0134   18.5333   19.0524 C   0  0  0  0  0  0  0  0  0  0  0  0
    0.2328   19.6504   19.2636 C   0  0  0  0  0  0  0  0  0  0  0  0
    1.2246   21.0330   19.4433 S   0  0  0  0  0  0  0  0  0  0  0  0
    2.6366   20.0551   19.2633 C   0  0  0  0  0  0  0  0  0  0  0  0
    2.3774   18.7870   19.0252 N   0  0  0  0  0  0  0  0  0  0  0  0
    3.9089   20.5175   19.2475 N   0  0  0  0  0  0  0  0  0  0  0  0
    4.3184   20.5546   18.3202 H   0  0  0  0  0  0  0  0  0  0  0  0
    4.8762   20.5767   20.2680 C   0  0  0  0  0  0  0  0  0  0  0  0
    5.0825   19.4216   21.0445 C   0  0  0  0  0  0  0  0  0  0  0  0
    6.0503   19.3886   22.0519 C   0  0  0  0  0  0  0  0  0  0  0  0
    6.8251   20.5140   22.2885 C   0  0  0  0  0  0  0  0  0  0  0  0
    7.7535   20.4881   23.2532 F   0  0  0  0  0  0  0  0  0  0  0  0
    6.6477   21.6673   21.5377 C   0  0  0  0  0  0  0  0  0  0  0  0
    5.6788   21.6954   20.5288 C   0  0  0  0  0  0  0  0  0  0  0  0
    0.5504   13.8347   20.7098 C   0  0  0  0  0  0  0  0  0  0  0  0
    0.9399   14.4323   22.0637 C   0  0  0  0  0  0  0  0  0  0  0  0
    4.3147   16.1077   21.7130 C   0  0  0  0  0  0  0  0  0  0  0  0
    3.3293   14.9943   21.9466 C   0  0  0  0  0  0  0  0  0  0  0  0
    3.6834   13.8292   22.0933 O   0  0  0  0  0  0  0  0  0  0  0  0
    2.0156   15.4016   21.9678 N   0  0  0  0  0  0  0  0  0  0  0  0
    1.7950   16.3293   21.6224 H   0  0  0  0  0  0  0  0  0  0  0  0
 24 25  1  0  0  0
 25 26  2  0  0  0
 25 27  1  0  0  0
 27 23  1  0  0  0
 23 22  1  0  0  0
 22  1  1  0  0  0
  1  2  1  0  0  0
  2  3  2  0  0  0
  3  8  1  0  0  0
  8  9  2  0  0  0
  9 10  1  0  0  0
 10 11  1  0  0  0
 11 13  1  0  0  0
 13 15  1  0  0  0
 15 16  1  0  0  0
 16 17  2  0  0  0
 17 18  1  0  0  0
 18 19  1  0  0  0
 18 20  2  0  0  0
 20 21  1  0  0  0
 11 12  2  0  0  0
  3  4  1  0  0  0
  4  5  2  0  0  0
  5  6  1  0  0  0
  6  7  1  0  0  0
  6  1  2  0  0  0
 12  8  1  0  0  0
 21 15  2  0  0  0
 27 28  1  0  0  0
 13 14  1  0  0  0
M  END
> <minimizedAffinity>
-10.57839

$$$$
OCNT-2311562


 25 27  0  0  0  0  0  0  0  0999 V2000
    1.2602   14.8766   21.5228 C   0  0  0  0  0  0  0  0  0  0  0  0
    2.2296   15.8003   20.7826 C   0  0  0  0  0  0  0  0  0  0  0  0
    1.4833   16.9204   20.1975 N   0  0  0  0  0  0  0  0  0  0  0  0
    0.4503   16.7178   19.3091 C   0  0  0  0  0  0  0  0  0  0  0  0
    0.1526   15.6112   18.8579 O   0  0  0  0  0  0  0  0  0  0  0  0
    1.5386   17.8123   20.6723 H   0  0  0  0  0  0  0  0  0  0  0  0
   -0.3348   17.9776   18.8662 C   0  0  0  0  0  0  0  0  0  0  0  0
   -0.6960   18.7511   20.0142 O   0  0  0  0  0  0  0  0  0  0  0  0
   -1.6181   17.6174   18.1010 C   0  0  0  0  0  0  0  0  0  0  0  0
   -1.6888   18.6274   16.9622 C   0  0  0  0  0  0  0  0  0  0  0  0
   -0.2337   18.8296   16.5825 C   0  0  0  0  0  0  0  0  0  0  0  0
    0.4835   18.8819   17.9267 C   0  0  0  0  0  0  0  0  0  0  0  0
   -0.4638   18.2001   20.7913 H   0  0  0  0  0  0  0  0  0  0  0  0
    3.3542   16.3276   21.6959 C   0  0  0  0  0  0  0  0  0  0  0  0
    3.8410   17.6516   21.3191 N   0  0  0  0  0  0  0  0  0  0  0  0
    3.1390   18.2851   20.3178 N   0  0  0  0  0  0  0  0  0  0  0  0
    3.5423   19.4528   19.9282 C   0  0  0  0  0  0  0  0  0  0  0  0
    4.6993   20.1444   20.4807 C   0  0  0  0  0  0  0  0  0  0  0  0
    5.0737   21.4058   20.0150 C   0  0  0  0  0  0  0  0  0  0  0  0
    6.1911   22.0312   20.5708 C   0  0  0  0  0  0  0  0  0  0  0  0
    6.9214   21.3970   21.5795 C   0  0  0  0  0  0  0  0  0  0  0  0
    6.5368   20.1340   22.0368 C   0  0  0  0  0  0  0  0  0  0  0  0
    5.4171   19.5072   21.4811 C   0  0  0  0  0  0  0  0  0  0  0  0
    4.9801   18.1742   21.9339 C   0  0  0  0  0  0  0  0  0  0  0  0
    5.6215   17.5923   22.8054 O   0  0  0  0  0  0  0  0  0  0  0  0
  1  2  1  0  0  0
  2 14  1  0  0  0
 14 15  1  0  0  0
 15 16  1  0  0  0
 16 17  2  0  0  0
 17 18  1  0  0  0
 18 19  2  0  0  0
 19 20  1  0  0  0
 20 21  2  0  0  0
 21 22  1  0  0  0
 22 23  2  0  0  0
 23 24  1  0  0  0
 24 25  2  0  0  0
  2  3  1  0  0  0
  3  4  1  0  0  0
  4  5  2  0  0  0
  4  7  1  0  0  0
  7  8  1  0  0  0
  7  9  1  0  0  0
  9 10  1  0  0  0
 10 11  1  0  0  0
 11 12  1  0  0  0
 24 15  1  0  0  0
 12  7  1  0  0  0
 23 18  1  0  0  0
  3  6  1  0  0  0
  8 13  1  0  0  0
M  END
> <minimizedAffinity>
-11.39788

$$$$
OCNT-2311567


 23 25  0  0  0  0  0  0  0  0999 V2000
    3.3334   17.5916   20.3537 N   0  0  0  0  0  0  0  0  0  0  0  0
    4.2874   18.2351   19.4249 C   0  0  0  0  0  0  0  0  0  0  0  0
    3.6459   19.3420   18.5805 C   0  0  0  0  0  0  0  0  0  0  0  0
    2.8558   20.2581   19.4096 N   0  0  0  0  0  0  0  0  0  0  0  0
    3.2897   21.5009   19.8675 C   0  0  0  0  0  0  0  0  0  0  0  0
    2.5228   22.2481   20.4783 O   0  0  0  0  0  0  0  0  0  0  0  0
    1.4833   19.8706   19.7453 C   0  0  0  0  0  0  0  0  0  0  0  0
    1.1172   18.4087   19.6197 C   0  0  0  0  0  0  0  0  0  0  0  0
   -0.1947   18.0920   19.2158 C   0  0  0  0  0  0  0  0  0  0  0  0
   -0.6194   16.7663   19.1150 C   0  0  0  0  0  0  0  0  0  0  0  0
    0.2561   15.7322   19.4259 C   0  0  0  0  0  0  0  0  0  0  0  0
    1.5538   16.0257   19.8401 C   0  0  0  0  0  0  0  0  0  0  0  0
    1.9843   17.3536   19.9490 C   0  0  0  0  0  0  0  0  0  0  0  0
    5.5002   16.8527   21.7660 C   0  0  0  0  0  0  0  0  0  0  0  0
    3.7915   17.3130   21.9538 S   0  0  0  0  0  0  0  0  0  0  0  0
    3.0788   16.1378   22.4152 O   0  0  0  0  0  0  0  0  0  0  0  0
    3.7485   18.5470   22.7088 O   0  0  0  0  0  0  0  0  0  0  0  0
    4.7319   21.9002   19.5637 C   0  0  0  0  0  0  0  0  0  0  0  0
    5.6582   21.4655   20.6540 C   0  0  0  0  0  0  0  0  0  0  0  0
    6.8210   20.7238   20.5725 C   0  0  0  0  0  0  0  0  0  0  0  0
    7.4474   20.4535   21.7734 N   0  0  0  0  0  0  0  0  0  0  0  0
    6.7717   21.0162   22.7501 C   0  0  0  0  0  0  0  0  0  0  0  0
    5.3536   21.8668   22.2964 S   0  0  0  0  0  0  0  0  0  0  0  0
 14 15  1  0  0  0
 15 16  2  0  0  0
 15 17  2  0  0  0
 15  1  1  0  0  0
  1  2  1  0  0  0
  2  3  1  0  0  0
  3  4  1  0  0  0
  4  5  1  0  0  0
  5  6  2  0  0  0
  5 18  1  0  0  0
 18 19  1  0  0  0
 19 20  2  0  0  0
 20 21  1  0  0  0
 21 22  2  0  0  0
 22 23  1  0  0  0
  4  7  1  0  0  0
  7  8  1  0  0  0
  8  9  2  0  0  0
  9 10  1  0  0  0
 10 11  2  0  0  0
 11 12  1  0  0  0
 12 13  2  0  0  0
 13  1  1  0  0  0
 23 19  1  0  0  0
 13  8  1  0  0  0
M  END
> <minimizedAffinity>
-3.63973

$$$$
OCNT-2311573


 22 24  0  0  0  0  0  0  0  0999 V2000
    3.0053   16.9795   22.9565 C   0  0  0  0  0  0  0  0  0  0  0  0
    3.2060   16.3420   21.5745 C   0  0  0  0  0  0  0  0  0  0  0  0
    3.2511   14.7857   21.7756 C   0  0  0  0  0  0  0  0  0  0  0  0
    1.8213   14.3262   21.5644 C   0  0  0  0  0  0  0  0  0  0  0  0
    1.3732   15.2179   20.4202 C   0  0  0  0  0  0  0  0  0  0  0  0
    1.9929   16.5094   20.7306 N   0  0  0  0  0  0  0  0  0  0  0  0
    1.6081   17.5810   19.9618 C   0  0  0  0  0  0  0  0  0  0  0  0
    2.3093   18.7700   19.9297 C   0  0  0  0  0  0  0  0  0  0  0  0
    1.8251   19.7892   19.1359 C   0  0  0  0  0  0  0  0  0  0  0  0
    0.7060   19.6918   18.4073 N   0  0  0  0  0  0  0  0  0  0  0  0
    0.0729   18.5133   18.5099 C   0  0  0  0  0  0  0  0  0  0  0  0
    0.4671   17.4636   19.2560 N   0  0  0  0  0  0  0  0  0  0  0  0
   -1.1428   18.3525   17.7566 C   0  0  0  0  0  0  0  0  0  0  0  0
   -2.1264   18.2277   17.1461 N   0  0  0  0  0  0  0  0  0  0  0  0
    4.5497   16.7165   20.8782 C   0  0  0  0  0  0  0  0  0  0  0  0
    5.2795   17.9848   21.2575 C   0  0  0  0  0  0  0  0  0  0  0  0
    6.3704   17.9590   22.1382 C   0  0  0  0  0  0  0  0  0  0  0  0
    7.0463   19.1353   22.4706 C   0  0  0  0  0  0  0  0  0  0  0  0
    6.6488   20.3514   21.9173 C   0  0  0  0  0  0  0  0  0  0  0  0
    5.5819   20.3833   21.0237 C   0  0  0  0  0  0  0  0  0  0  0  0
    5.0355   22.0292   20.2725 Br  0  0  0  0  0  0  0  0  0  0  0  0
    4.9059   19.2110   20.6845 C   0  0  0  0  0  0  0  0  0  0  0  0
  1  2  1  0  0  0
  2 15  1  0  0  0
 15 16  1  0  0  0
 16 17  2  0  0  0
 17 18  1  0  0  0
 18 19  2  0  0  0
 19 20  1  0  0  0
 20 21  1  0  0  0
 20 22  2  0  0  0
  2  3  1  0  0  0
  3  4  1  0  0  0
  4  5  1  0  0  0
  5  6  1  0  0  0
  6  7  1  0  0  0
  7  8  1  0  0  0
  8  9  2  0  0  0
  9 10  1  0  0  0
 10 11  2  0  0  0
 11 13  1  0  0  0
 13 14  3  0  0  0
 11 12  1  0  0  0
  6  2  1  0  0  0
 12  7  2  0  0  0
 22 16  1  0  0  0
M  END
> <minimizedAffinity>
-7.18157

$$$$
OCNT-2311574


 25 27  0  0  0  0  0  0  0  0999 V2000
    3.1874   19.1269   19.3755 N   0  0  0  0  0  0  0  0  0  0  0  0
    3.6577   20.3932   19.7070 C   0  0  0  0  0  0  0  0  0  0  0  0
    3.0035   21.4312   19.6799 O   0  0  0  0  0  0  0  0  0  0  0  0
    3.8553   18.3676   19.4338 H   0  0  0  0  0  0  0  0  0  0  0  0
    5.1357   20.3728   20.1208 C   0  0  0  0  0  0  0  0  0  0  0  0
    5.5964   21.7647   20.6345 C   0  0  0  0  0  0  0  0  0  0  0  0
    7.0112   21.7168   21.2495 C   0  0  0  0  0  0  0  0  0  0  0  0
    7.0900   20.7762   22.4677 C   0  0  0  0  0  0  0  0  0  0  0  0
    6.3272   19.5362   22.1845 C   0  0  0  0  0  0  0  0  0  0  0  0
    5.4227   19.3340   21.1636 C   0  0  0  0  0  0  0  0  0  0  0  0
    4.9504   18.0253   21.3805 C   0  0  0  0  0  0  0  0  0  0  0  0
    5.5296   17.4446   22.4360 N   0  0  0  0  0  0  0  0  0  0  0  0
    6.3505   18.3928   22.9225 N   0  0  0  0  0  0  0  0  0  0  0  0
    6.8877   18.1854   23.7586 H   0  0  0  0  0  0  0  0  0  0  0  0
   -0.0611   17.3046   18.9092 C   0  0  0  0  0  0  0  0  0  0  0  0
    1.2361   17.5934   19.3595 C   0  0  0  0  0  0  0  0  0  0  0  0
    1.8855   18.7661   18.9673 C   0  0  0  0  0  0  0  0  0  0  0  0
    1.2218   19.6525   18.1136 C   0  0  0  0  0  0  0  0  0  0  0  0
   -0.0713   19.3766   17.6584 C   0  0  0  0  0  0  0  0  0  0  0  0
   -0.7216   18.2050   18.0509 C   0  0  0  0  0  0  0  0  0  0  0  0
   -1.9876   17.8501   17.6579 O   0  0  0  0  0  0  0  0  0  0  0  0
   -2.6128   18.6361   16.6542 C   0  0  0  0  0  0  0  0  0  0  0  0
   -0.7669   16.1753   19.2500 O   0  0  0  0  0  0  0  0  0  0  0  0
    0.3414   14.5407   20.5793 C   0  0  0  0  0  0  0  0  0  0  0  0
   -0.0937   14.9211   19.1752 C   0  0  0  0  0  0  0  0  0  0  0  0
 24 25  1  0  0  0
 25 23  1  0  0  0
 23 15  1  0  0  0
 15 16  1  0  0  0
 16 17  2  0  0  0
 17  1  1  0  0  0
  1  2  1  0  0  0
  2  3  2  0  0  0
  2  5  1  0  0  0
  5  6  1  0  0  0
  6  7  1  0  0  0
  7  8  1  0  0  0
  8  9  1  0  0  0
  9 10  2  0  0  0
 10 11  1  0  0  0
 11 12  2  0  0  0
 12 13  1  0  0  0
 17 18  1  0  0  0
 18 19  2  0  0  0
 19 20  1  0  0  0
 20 21  1  0  0  0
 21 22  1  0  0  0
 20 15  2  0  0  0
 10  5  1  0  0  0
 13  9  1  0  0  0
  1  4  1  0  0  0
 13 14  1  0  0  0
M  END
> <minimizedAffinity>
-9.12594

$$$$
OCNT-2311582


 23 25  0  0  0  0  0  0  0  0999 V2000
    5.4628   16.2524   21.3748 O   0  0  0  0  0  0  0  0  0  0  0  0
    4.7169   17.2217   21.2678 C   0  0  0  0  0  0  0  0  0  0  0  0
    3.3486   17.1179   21.0621 N   0  0  0  0  0  0  0  0  0  0  0  0
    2.7504   15.7737   21.0740 C   0  0  0  0  0  0  0  0  0  0  0  0
    1.2285   15.8274   21.2675 C   0  0  0  0  0  0  0  0  0  0  0  0
    0.5604   16.6177   20.2057 N   0  0  0  0  0  0  0  0  0  0  0  0
    1.3713   17.7259   19.6451 C   0  0  0  0  0  0  0  0  0  0  0  0
    2.4596   18.2088   20.6248 C   0  0  0  0  0  0  0  0  0  0  0  0
    5.3321   18.5547   21.3709 C   0  0  0  0  0  0  0  0  0  0  0  0
    6.4737   18.7625   22.1343 C   0  0  0  0  0  0  0  0  0  0  0  0
    7.0879   19.9636   22.2520 N   0  0  0  0  0  0  0  0  0  0  0  0
    6.5531   20.9873   21.5405 C   0  0  0  0  0  0  0  0  0  0  0  0
    7.1592   22.1794   21.6542 F   0  0  0  0  0  0  0  0  0  0  0  0
    5.4334   20.8617   20.7233 C   0  0  0  0  0  0  0  0  0  0  0  0
    4.8072   22.1981   19.8427 Cl  0  0  0  0  0  0  0  0  0  0  0  0
    4.8137   19.6191   20.6324 C   0  0  0  0  0  0  0  0  0  0  0  0
    0.0009   15.8322   19.1770 C   0  0  0  0  0  0  0  0  0  0  0  0
   -0.1077   14.4479   19.3602 C   0  0  0  0  0  0  0  0  0  0  0  0
   -0.6649   13.6522   18.3594 C   0  0  0  0  0  0  0  0  0  0  0  0
   -1.0996   14.2589   17.1967 C   0  0  0  0  0  0  0  0  0  0  0  0
   -1.6397   13.5317   16.2117 F   0  0  0  0  0  0  0  0  0  0  0  0
   -0.9613   15.6265   17.0738 C   0  0  0  0  0  0  0  0  0  0  0  0
   -0.4232   16.4180   18.0345 N   0  0  0  0  0  0  0  0  0  0  0  0
  1  2  2  0  0  0
  2  9  1  0  0  0
  9 10  1  0  0  0
 10 11  2  0  0  0
 11 12  1  0  0  0
 12 13  1  0  0  0
 12 14  2  0  0  0
 14 15  1  0  0  0
 14 16  1  0  0  0
  2  3  1  0  0  0
  3  4  1  0  0  0
  4  5  1  0  0  0
  5  6  1  0  0  0
  6 17  1  0  0  0
 17 18  2  0  0  0
 18 19  1  0  0  0
 19 20  2  0  0  0
 20 21  1  0  0  0
 20 22  1  0  0  0
 22 23  2  0  0  0
  6  7  1  0  0  0
  7  8  1  0  0  0
 16  9  2  0  0  0
  8  3  1  0  0  0
 23 17  1  0  0  0
M  END
> <minimizedAffinity>
-6.60470

$$$$
OCNT-2311588


 25 27  0  0  0  0  0  0  0  0999 V2000
    4.1427   17.1955   21.9538 C   0  0  0  0  0  0  0  0  0  0  0  0
    3.4502   17.9922   20.8411 C   0  0  0  0  0  0  0  0  0  0  0  0
    1.9750   17.6250   20.7503 C   0  0  0  0  0  0  0  0  0  0  0  0
    1.7828   16.1810   20.6218 N   0  0  0  0  0  0  0  0  0  0  0  0
    0.7057   15.6121   19.9374 C   0  0  0  0  0  0  0  0  0  0  0  0
    0.3400   14.4467   20.0498 O   0  0  0  0  0  0  0  0  0  0  0  0
    2.4767   15.3473   21.5975 C   0  0  0  0  0  0  0  0  0  0  0  0
    3.9559   15.6972   21.7009 C   0  0  0  0  0  0  0  0  0  0  0  0
   -0.1007   16.5015   19.0085 C   0  0  0  0  0  0  0  0  0  0  0  0
   -0.4072   17.7051   19.3903 N   0  0  0  0  0  0  0  0  0  0  0  0
   -1.1403   18.4490   18.5032 N   0  0  0  0  0  0  0  0  0  0  0  0
   -1.5650   18.0341   17.2651 C   0  0  0  0  0  0  0  0  0  0  0  0
   -2.2264   18.7361   16.5097 O   0  0  0  0  0  0  0  0  0  0  0  0
   -1.1805   16.6616   16.8760 C   0  0  0  0  0  0  0  0  0  0  0  0
   -0.4678   15.9001   17.7094 C   0  0  0  0  0  0  0  0  0  0  0  0
   -1.3773   19.3945   18.7871 H   0  0  0  0  0  0  0  0  0  0  0  0
    5.5628   17.5520   21.9605 N   0  0  0  0  0  0  0  0  0  0  0  0
    6.0941   17.0615   22.6771 H   0  0  0  0  0  0  0  0  0  0  0  0
    4.6226   22.0342   20.1585 C   0  0  0  0  0  0  0  0  0  0  0  0
    5.5047   21.1220   20.9577 C   0  0  0  0  0  0  0  0  0  0  0  0
    6.6879   21.5960   21.5256 C   0  0  0  0  0  0  0  0  0  0  0  0
    7.4998   20.7352   22.2590 C   0  0  0  0  0  0  0  0  0  0  0  0
    7.1481   19.3896   22.4091 C   0  0  0  0  0  0  0  0  0  0  0  0
    6.0001   18.8691   21.8045 C   0  0  0  0  0  0  0  0  0  0  0  0
    5.1748   19.7651   21.1045 C   0  0  0  0  0  0  0  0  0  0  0  0
 19 20  1  0  0  0
 20 21  2  0  0  0
 21 22  1  0  0  0
 22 23  2  0  0  0
 23 24  1  0  0  0
 24 17  1  0  0  0
 17  1  1  0  0  0
  1  2  1  0  0  0
  2  3  1  0  0  0
  3  4  1  0  0  0
  4  5  1  0  0  0
  5  6  2  0  0  0
  5  9  1  0  0  0
  9 10  2  0  0  0
 10 11  1  0  0  0
 11 12  1  0  0  0
 12 13  2  0  0  0
 12 14  1  0  0  0
 14 15  2  0  0  0
  4  7  1  0  0  0
  7  8  1  0  0  0
 24 25  2  0  0  0
 25 20  1  0  0  0
  8  1  1  0  0  0
 15  9  1  0  0  0
 17 18  1  0  0  0
 11 16  1  0  0  0
M  END
> <minimizedAffinity>
-10.33068

$$$$
OCNT-2311592


 26 28  0  0  0  0  0  0  0  0999 V2000
    3.5481   16.7564   21.2566 N   0  0  0  0  0  0  0  0  0  0  0  0
    2.6973   15.7071   21.5391 C   0  0  0  0  0  0  0  0  0  0  0  0
    2.8505   14.9398   22.4811 O   0  0  0  0  0  0  0  0  0  0  0  0
    3.5064   17.1891   20.3435 H   0  0  0  0  0  0  0  0  0  0  0  0
    1.5660   15.5161   20.5951 C   0  0  0  0  0  0  0  0  0  0  0  0
    0.9173   14.2779   20.5754 C   0  0  0  0  0  0  0  0  0  0  0  0
   -0.1367   14.0615   19.6915 C   0  0  0  0  0  0  0  0  0  0  0  0
   -0.5535   15.0885   18.8416 C   0  0  0  0  0  0  0  0  0  0  0  0
    0.0619   16.3499   18.8725 C   0  0  0  0  0  0  0  0  0  0  0  0
    1.1326   16.5544   19.7557 C   0  0  0  0  0  0  0  0  0  0  0  0
   -0.4285   17.4020   17.9826 C   0  0  0  0  0  0  0  0  0  0  0  0
    0.2690   18.0627   17.0766 N   0  0  0  0  0  0  0  0  0  0  0  0
   -0.6398   18.9167   16.5231 C   0  0  0  0  0  0  0  0  0  0  0  0
   -1.8746   18.8285   17.0184 N   0  0  0  0  0  0  0  0  0  0  0  0
   -1.7221   17.8527   17.9279 N   0  0  0  0  0  0  0  0  0  0  0  0
   -2.5282   17.5389   18.4539 H   0  0  0  0  0  0  0  0  0  0  0  0
    4.7387   16.9868   22.0563 C   0  0  0  0  0  0  0  0  0  0  0  0
    4.6767   18.3104   22.8225 C   0  0  0  0  0  0  0  0  0  0  0  0
    6.8369   21.4167   20.7311 C   0  0  0  0  0  0  0  0  0  0  0  0
    5.5141   21.1302   20.3955 C   0  0  0  0  0  0  0  0  0  0  0  0
    4.8161   20.1282   21.0788 C   0  0  0  0  0  0  0  0  0  0  0  0
    5.4305   19.4030   22.1076 C   0  0  0  0  0  0  0  0  0  0  0  0
    6.7587   19.6906   22.4379 C   0  0  0  0  0  0  0  0  0  0  0  0
    7.4525   20.6914   21.7536 C   0  0  0  0  0  0  0  0  0  0  0  0
    8.9817   22.0041   19.8937 C   0  0  0  0  0  0  0  0  0  0  0  0
    7.6296   22.3650   20.1454 O   0  0  0  0  0  0  0  0  0  0  0  0
 25 26  1  0  0  0
 26 19  1  0  0  0
 19 20  1  0  0  0
 20 21  2  0  0  0
 21 22  1  0  0  0
 22 18  1  0  0  0
 18 17  1  0  0  0
 17  1  1  0  0  0
  1  2  1  0  0  0
  2  3  2  0  0  0
  2  5  1  0  0  0
  5  6  1  0  0  0
  6  7  2  0  0  0
  7  8  1  0  0  0
  8  9  2  0  0  0
  9 11  1  0  0  0
 11 12  2  0  0  0
 12 13  1  0  0  0
 13 14  2  0  0  0
 14 15  1  0  0  0
  9 10  1  0  0  0
 22 23  2  0  0  0
 23 24  1  0  0  0
 24 19  2  0  0  0
 10  5  2  0  0  0
 15 11  1  0  0  0
  1  4  1  0  0  0
 15 16  1  0  0  0
M  END
> <minimizedAffinity>
-9.74347

$$$$
OCNT-2311602


 26 29  0  0  0  0  0  0  0  0999 V2000
    3.8189   14.7214   21.7785 C   0  0  0  0  0  0  0  0  0  0  0  0
    4.5849   13.8682   22.2197 O   0  0  0  0  0  0  0  0  0  0  0  0
    2.5254   14.4383   21.3445 N   0  0  0  0  0  0  0  0  0  0  0  0
    1.6989   15.3181   20.5241 C   0  0  0  0  0  0  0  0  0  0  0  0
    0.2857   15.3967   21.0930 C   0  0  0  0  0  0  0  0  0  0  0  0
   -0.3139   14.0072   21.4110 C   0  0  0  0  0  0  0  0  0  0  0  0
    0.6255   12.8514   21.0216 C   0  0  0  0  0  0  0  0  0  0  0  0
    2.0686   13.0586   21.4783 C   0  0  0  0  0  0  0  0  0  0  0  0
    5.2179   18.7686   21.5787 C   0  0  0  0  0  0  0  0  0  0  0  0
    3.9156   18.4320   21.1713 C   0  0  0  0  0  0  0  0  0  0  0  0
    3.4601   17.1120   21.2410 C   0  0  0  0  0  0  0  0  0  0  0  0
    4.3024   16.1168   21.7386 C   0  0  0  0  0  0  0  0  0  0  0  0
    5.6094   16.4259   22.1266 C   0  0  0  0  0  0  0  0  0  0  0  0
    6.0598   17.7479   22.0526 C   0  0  0  0  0  0  0  0  0  0  0  0
    8.0409   22.4247   20.2275 C   0  0  0  0  0  0  0  0  0  0  0  0
    6.9064   21.7720   20.9004 C   0  0  0  0  0  0  0  0  0  0  0  0
    5.9502   22.2954   21.6353 N   0  0  0  0  0  0  0  0  0  0  0  0
    5.1412   21.2457   22.0201 N   0  0  0  0  0  0  0  0  0  0  0  0
    5.6616   20.1548   21.4935 C   0  0  0  0  0  0  0  0  0  0  0  0
    6.7957   20.4148   20.7650 O   0  0  0  0  0  0  0  0  0  0  0  0
   -0.7993   13.8782   22.8468 C   0  0  0  0  0  0  0  0  0  0  0  0
   -1.2438   12.6386   23.3220 C   0  0  0  0  0  0  0  0  0  0  0  0
   -1.6729   12.5356   24.6375 C   0  0  0  0  0  0  0  0  0  0  0  0
   -1.6874   13.5669   25.5061 N   0  0  0  0  0  0  0  0  0  0  0  0
   -1.2480   14.7531   25.0378 C   0  0  0  0  0  0  0  0  0  0  0  0
   -0.8026   14.9556   23.7394 C   0  0  0  0  0  0  0  0  0  0  0  0
 15 16  1  0  0  0
 16 17  2  0  0  0
 17 18  1  0  0  0
 18 19  2  0  0  0
 19  9  1  0  0  0
  9 10  1  0  0  0
 10 11  2  0  0  0
 11 12  1  0  0  0
 12  1  1  0  0  0
  1  2  2  0  0  0
  1  3  1  0  0  0
  3  4  1  0  0  0
  4  5  1  0  0  0
  5  6  1  0  0  0
  6 21  1  0  0  0
 21 22  2  0  0  0
 22 23  1  0  0  0
 23 24  2  0  0  0
 24 25  1  0  0  0
 25 26  2  0  0  0
  6  7  1  0  0  0
  7  8  1  0  0  0
 12 13  2  0  0  0
 13 14  1  0  0  0
 19 20  1  0  0  0
 20 16  1  0  0  0
 14  9  2  0  0  0
  8  3  1  0  0  0
 26 21  1  0  0  0
M  END
> <minimizedAffinity>
1.13233

$$$$
OCNT-2311610


 25 28  0  0  0  0  0  0  0  0999 V2000
   -1.1855   19.1571   18.2337 O   0  0  0  0  0  0  0  0  0  0  0  0
   -0.1612   18.5236   17.9734 C   0  0  0  0  0  0  0  0  0  0  0  0
    1.0128   18.7210   18.7007 N   0  0  0  0  0  0  0  0  0  0  0  0
    2.2238   17.9090   18.5636 C   0  0  0  0  0  0  0  0  0  0  0  0
    3.0001   17.8419   19.8738 C   0  0  0  0  0  0  0  0  0  0  0  0
    3.4456   19.2442   20.3557 C   0  0  0  0  0  0  0  0  0  0  0  0
    2.4534   20.3355   19.8734 C   0  0  0  0  0  0  0  0  0  0  0  0
    1.0428   19.7935   19.6927 C   0  0  0  0  0  0  0  0  0  0  0  0
    3.4984   19.2681   21.9214 C   0  0  0  0  0  0  0  0  0  0  0  0
    4.3809   18.2975   22.5925 N   0  0  0  0  0  0  0  0  0  0  0  0
    5.7098   18.2015   21.9853 C   0  0  0  0  0  0  0  0  0  0  0  0
    6.2487   19.5205   21.5105 C   0  0  0  0  0  0  0  0  0  0  0  0
    7.2908   20.1699   22.1850 C   0  0  0  0  0  0  0  0  0  0  0  0
    7.7845   21.3874   21.7115 C   0  0  0  0  0  0  0  0  0  0  0  0
    7.2454   21.9615   20.5605 C   0  0  0  0  0  0  0  0  0  0  0  0
    6.2031   21.3259   19.8874 C   0  0  0  0  0  0  0  0  0  0  0  0
    5.6920   20.1258   20.3769 C   0  0  0  0  0  0  0  0  0  0  0  0
    4.6911   19.5339   19.6620 O   0  0  0  0  0  0  0  0  0  0  0  0
    4.4911   18.5938   23.5624 H   0  0  0  0  0  0  0  0  0  0  0  0
   -0.1123   17.4715   16.8676 C   0  0  0  0  0  0  0  0  0  0  0  0
   -0.3624   16.0979   17.4034 C   0  0  0  0  0  0  0  0  0  0  0  0
   -0.8497   14.9802   16.7529 C   0  0  0  0  0  0  0  0  0  0  0  0
   -1.0062   13.8501   17.5319 N   0  0  0  0  0  0  0  0  0  0  0  0
   -0.6050   14.1118   18.7558 C   0  0  0  0  0  0  0  0  0  0  0  0
   -0.0589   15.7106   19.0487 S   0  0  0  0  0  0  0  0  0  0  0  0
  1  2  2  0  0  0
  2 20  1  0  0  0
 20 21  1  0  0  0
 21 22  2  0  0  0
 22 23  1  0  0  0
 23 24  2  0  0  0
 24 25  1  0  0  0
  2  3  1  0  0  0
  3  4  1  0  0  0
  4  5  1  0  0  0
  5  6  1  0  0  0
  6  7  1  0  0  0
  7  8  1  0  0  0
  6  9  1  0  0  0
  9 10  1  0  0  0
 10 11  1  0  0  0
 11 12  1  0  0  0
 12 13  2  0  0  0
 13 14  1  0  0  0
 14 15  2  0  0  0
 15 16  1  0  0  0
 16 17  2  0  0  0
 17 18  1  0  0  0
 25 21  1  0  0  0
  8  3  1  0  0  0
 17 12  1  0  0  0
 18  6  1  0  0  0
 10 19  1  0  0  0
M  END
> <minimizedAffinity>
-3.41997

$$$$
OCNT-2311629


 23 25  0  0  0  0  0  0  0  0999 V2000
    2.7878   16.8647   21.0476 N   0  0  0  0  0  0  0  0  0  0  0  0
    3.4894   17.8836   20.4413 C   0  0  0  0  0  0  0  0  0  0  0  0
    4.4085   18.2919   21.3819 C   0  0  0  0  0  0  0  0  0  0  0  0
    4.2516   17.5341   22.5096 N   0  0  0  0  0  0  0  0  0  0  0  0
    3.2677   16.6719   22.2988 N   0  0  0  0  0  0  0  0  0  0  0  0
   -0.0910   15.8204   18.9181 C   0  0  0  0  0  0  0  0  0  0  0  0
   -0.3935   14.5718   19.4765 C   0  0  0  0  0  0  0  0  0  0  0  0
    0.3528   14.0832   20.5502 C   0  0  0  0  0  0  0  0  0  0  0  0
    1.4068   14.8340   21.0768 C   0  0  0  0  0  0  0  0  0  0  0  0
    1.7207   16.0850   20.5280 C   0  0  0  0  0  0  0  0  0  0  0  0
    0.9677   16.5746   19.4470 C   0  0  0  0  0  0  0  0  0  0  0  0
   -0.8570   16.3858   17.7723 C   0  0  0  0  0  0  0  0  0  0  0  0
   -0.8602   15.8964   16.6545 O   0  0  0  0  0  0  0  0  0  0  0  0
   -1.5081   18.5488   17.1822 C   0  0  0  0  0  0  0  0  0  0  0  0
   -1.5330   17.4995   18.1514 O   0  0  0  0  0  0  0  0  0  0  0  0
    5.4014   19.3455   21.2507 C   0  0  0  0  0  0  0  0  0  0  0  0
    6.5124   19.4360   22.1009 C   0  0  0  0  0  0  0  0  0  0  0  0
    7.4547   20.4643   21.9503 C   0  0  0  0  0  0  0  0  0  0  0  0
    7.3001   21.4184   20.9462 C   0  0  0  0  0  0  0  0  0  0  0  0
    6.1971   21.3349   20.0963 C   0  0  0  0  0  0  0  0  0  0  0  0
    5.2567   20.3102   20.2452 C   0  0  0  0  0  0  0  0  0  0  0  0
    8.1407   22.4659   20.6927 O   0  0  0  0  0  0  0  0  0  0  0  0
    9.2236   22.2229   19.8040 C   0  0  0  0  0  0  0  0  0  0  0  0
 14 15  1  0  0  0
 15 12  1  0  0  0
 12 13  2  0  0  0
 12  6  1  0  0  0
  6  7  1  0  0  0
  7  8  2  0  0  0
  8  9  1  0  0  0
  9 10  2  0  0  0
 10  1  1  0  0  0
  1  2  1  0  0  0
  2  3  2  0  0  0
  3 16  1  0  0  0
 16 17  1  0  0  0
 17 18  2  0  0  0
 18 19  1  0  0  0
 19 22  1  0  0  0
 22 23  1  0  0  0
 19 20  2  0  0  0
 20 21  1  0  0  0
  3  4  1  0  0  0
  4  5  2  0  0  0
 10 11  1  0  0  0
 11  6  2  0  0  0
  5  1  1  0  0  0
 21 16  2  0  0  0
M  END
> <minimizedAffinity>
-8.02479

$$$$
OCNT-2311630


 25 27  0  0  0  0  0  0  0  0999 V2000
    2.1993   19.0368   19.3782 C   0  0  0  0  0  0  0  0  0  0  0  0
    1.8572   20.2194   19.4569 O   0  0  0  0  0  0  0  0  0  0  0  0
    3.5544   18.6959   19.5140 N   0  0  0  0  0  0  0  0  0  0  0  0
    4.0670   17.3357   19.6531 C   0  0  0  0  0  0  0  0  0  0  0  0
    5.4405   17.3230   20.3264 C   0  0  0  0  0  0  0  0  0  0  0  0
    5.5178   18.3559   21.4731 C   0  0  0  0  0  0  0  0  0  0  0  0
    5.2989   19.8245   20.9021 C   0  0  0  0  0  0  0  0  0  0  0  0
    4.5047   20.7839   21.8407 C   0  0  0  0  0  0  0  0  0  0  0  0
    5.4332   21.5371   22.7844 C   0  0  0  0  0  0  0  0  0  0  0  0
    6.3369   22.3945   22.0839 O   0  0  0  0  0  0  0  0  0  0  0  0
    6.6699   21.9763   20.7610 C   0  0  0  0  0  0  0  0  0  0  0  0
    6.7082   20.4584   20.6435 C   0  0  0  0  0  0  0  0  0  0  0  0
    4.5517   19.7556   19.5328 C   0  0  0  0  0  0  0  0  0  0  0  0
    0.2032   16.0857   19.3018 C   0  0  0  0  0  0  0  0  0  0  0  0
   -0.4433   16.6914   18.3298 N   0  0  0  0  0  0  0  0  0  0  0  0
    0.1934   17.9076   18.2146 C   0  0  0  0  0  0  0  0  0  0  0  0
   -0.2326   18.8919   17.1956 C   0  0  0  0  0  0  0  0  0  0  0  0
    1.2156   17.9973   19.1443 C   0  0  0  0  0  0  0  0  0  0  0  0
    1.2277   16.8118   19.8394 O   0  0  0  0  0  0  0  0  0  0  0  0
    0.9881   14.4034   20.9562 C   0  0  0  0  0  0  0  0  0  0  0  0
   -0.0192   14.7301   19.8635 C   0  0  0  0  0  0  0  0  0  0  0  0
    4.6026   17.9224   22.6219 C   0  0  0  0  0  0  0  0  0  0  0  0
    3.3492   18.4020   22.5150 F   0  0  0  0  0  0  0  0  0  0  0  0
    5.1003   18.3161   23.8153 F   0  0  0  0  0  0  0  0  0  0  0  0
    4.5150   16.5710   22.6661 F   0  0  0  0  0  0  0  0  0  0  0  0
 20 21  1  0  0  0
 21 14  1  0  0  0
 14 15  2  0  0  0
 15 16  1  0  0  0
 16 17  1  0  0  0
 16 18  2  0  0  0
 18  1  1  0  0  0
  1  2  2  0  0  0
  1  3  1  0  0  0
  3  4  1  0  0  0
  4  5  1  0  0  0
  5  6  1  0  0  0
  6 22  1  0  0  0
 22 23  1  0  0  0
 22 24  1  0  0  0
 22 25  1  0  0  0
  6  7  1  0  0  0
  7  8  1  0  0  0
  8  9  1  0  0  0
  9 10  1  0  0  0
 10 11  1  0  0  0
 11 12  1  0  0  0
  7 13  1  0  0  0
 18 19  1  0  0  0
 19 14  1  0  0  0
 13  3  1  0  0  0
 12  7  1  0  0  0
M  END
> <minimizedAffinity>
-6.69152

$$$$
OCNT-2311644


 22 24  0  0  0  0  0  0  0  0999 V2000
    3.9721   17.6062   21.2161 C   0  0  0  0  0  0  0  0  0  0  0  0
    4.6714   16.5810   21.6609 N   0  0  0  0  0  0  0  0  0  0  0  0
    3.8013   15.5135   21.7446 N   0  0  0  0  0  0  0  0  0  0  0  0
    2.6274   15.9607   21.3483 C   0  0  0  0  0  0  0  0  0  0  0  0
    2.6563   17.2856   20.9941 O   0  0  0  0  0  0  0  0  0  0  0  0
    6.9558   21.5461   22.1109 C   0  0  0  0  0  0  0  0  0  0  0  0
    5.8409   20.9013   21.3412 C   0  0  0  0  0  0  0  0  0  0  0  0
    5.1404   21.6242   20.3701 C   0  0  0  0  0  0  0  0  0  0  0  0
    4.0841   21.0340   19.6780 C   0  0  0  0  0  0  0  0  0  0  0  0
    3.7126   19.7181   19.9592 C   0  0  0  0  0  0  0  0  0  0  0  0
    4.3879   18.9751   20.9383 C   0  0  0  0  0  0  0  0  0  0  0  0
    5.4503   19.5837   21.6270 C   0  0  0  0  0  0  0  0  0  0  0  0
    1.3062   15.2472   21.2186 C   0  0  0  0  0  0  0  0  0  0  0  0
    1.5652   13.7549   21.4936 C   0  0  0  0  0  0  0  0  0  0  0  0
    0.6547   15.4975   19.8998 N   0  0  0  0  0  0  0  0  0  0  0  0
    0.0156   14.2882   19.3633 C   0  0  0  0  0  0  0  0  0  0  0  0
   -0.3471   16.5847   20.0095 C   0  0  0  0  0  0  0  0  0  0  0  0
   -0.1859   17.5718   18.8867 C   0  0  0  0  0  0  0  0  0  0  0  0
   -0.5749   17.3848   17.5708 C   0  0  0  0  0  0  0  0  0  0  0  0
   -0.1950   18.7702   16.6383 S   0  0  0  0  0  0  0  0  0  0  0  0
    0.4567   19.5090   18.0405 C   0  0  0  0  0  0  0  0  0  0  0  0
    0.4125   18.8000   19.1469 N   0  0  0  0  0  0  0  0  0  0  0  0
  6  7  1  0  0  0
  7  8  2  0  0  0
  8  9  1  0  0  0
  9 10  2  0  0  0
 10 11  1  0  0  0
 11  1  1  0  0  0
  1  2  2  0  0  0
  2  3  1  0  0  0
  3  4  2  0  0  0
  4 13  1  0  0  0
 13 14  1  0  0  0
 13 15  1  0  0  0
 15 16  1  0  0  0
 15 17  1  0  0  0
 17 18  1  0  0  0
 18 19  2  0  0  0
 19 20  1  0  0  0
 20 21  1  0  0  0
 21 22  2  0  0  0
  4  5  1  0  0  0
 11 12  2  0  0  0
 12  7  1  0  0  0
  5  1  1  0  0  0
 22 18  1  0  0  0
M  END
> <minimizedAffinity>
-9.33995

$$$$
OCNT-2311651


 27 30  0  0  0  0  0  0  0  0999 V2000
    2.6822   16.3238   21.4342 C   0  0  0  0  0  0  0  0  0  0  0  0
    3.1063   15.2162   22.0938 N   0  0  0  0  0  0  0  0  0  0  0  0
    2.4737   14.0468   21.8744 C   0  0  0  0  0  0  0  0  0  0  0  0
    1.4254   13.8147   21.0738 N   0  0  0  0  0  0  0  0  0  0  0  0
    1.0446   14.9294   20.4360 C   0  0  0  0  0  0  0  0  0  0  0  0
    1.6021   16.1960   20.5400 C   0  0  0  0  0  0  0  0  0  0  0  0
    0.8503   17.0468   19.6580 C   0  0  0  0  0  0  0  0  0  0  0  0
    0.9055   18.4124   19.3013 C   0  0  0  0  0  0  0  0  0  0  0  0
    0.0026   18.9278   18.3611 C   0  0  0  0  0  0  0  0  0  0  0  0
   -0.9522   18.1036   17.7768 C   0  0  0  0  0  0  0  0  0  0  0  0
   -2.1569   18.8293   16.5105 Br  0  0  0  0  0  0  0  0  0  0  0  0
   -1.0421   16.7498   18.1083 C   0  0  0  0  0  0  0  0  0  0  0  0
   -0.1296   16.2558   19.0498 C   0  0  0  0  0  0  0  0  0  0  0  0
    0.0114   14.9823   19.5484 N   0  0  0  0  0  0  0  0  0  0  0  0
   -0.5170   14.1722   19.2600 H   0  0  0  0  0  0  0  0  0  0  0  0
    3.3418   17.5247   21.6608 N   0  0  0  0  0  0  0  0  0  0  0  0
    3.8137   17.5196   22.5604 H   0  0  0  0  0  0  0  0  0  0  0  0
    4.2683   17.9263   20.6139 C   0  0  0  0  0  0  0  0  0  0  0  0
    6.7305   21.7583   22.0380 N   0  0  0  0  0  0  0  0  0  0  0  0
    5.8145   21.0450   21.3938 C   0  0  0  0  0  0  0  0  0  0  0  0
    4.9905   21.5080   20.4616 N   0  0  0  0  0  0  0  0  0  0  0  0
    4.3333   20.3921   20.1062 N   0  0  0  0  0  0  0  0  0  0  0  0
    4.7745   19.3170   20.8200 C   0  0  0  0  0  0  0  0  0  0  0  0
    5.6957   19.7189   21.6764 N   0  0  0  0  0  0  0  0  0  0  0  0
    7.0725   21.4041   22.9240 H   0  0  0  0  0  0  0  0  0  0  0  0
    6.6423   22.7648   21.9986 H   0  0  0  0  0  0  0  0  0  0  0  0
    3.6128   20.4425   19.3943 H   0  0  0  0  0  0  0  0  0  0  0  0
 19 20  1  0  0  0
 20 21  2  0  0  0
 21 22  1  0  0  0
 22 23  1  0  0  0
 23 18  1  0  0  0
 18 16  1  0  0  0
 16  1  1  0  0  0
  1  2  1  0  0  0
  2  3  2  0  0  0
  3  4  1  0  0  0
  4  5  2  0  0  0
  5  6  1  0  0  0
  6  7  1  0  0  0
  7  8  2  0  0  0
  8  9  1  0  0  0
  9 10  2  0  0  0
 10 11  1  0  0  0
 10 12  1  0  0  0
 12 13  2  0  0  0
 13 14  1  0  0  0
 23 24  2  0  0  0
 24 20  1  0  0  0
  6  1  2  0  0  0
 13  7  1  0  0  0
 14  5  1  0  0  0
 19 25  1  0  0  0
 19 26  1  0  0  0
 22 27  1  0  0  0
 16 17  1  0  0  0
 14 15  1  0  0  0
M  END
> <minimizedAffinity>
-10.23976

$$$$
OCNT-2311652


 24 26  0  0  0  0  0  0  0  0999 V2000
    1.6620   17.5140   19.7186 C   0  0  0  0  0  0  0  0  0  0  0  0
    2.0279   16.6056   20.4642 O   0  0  0  0  0  0  0  0  0  0  0  0
    2.4564   18.6518   19.5259 N   0  0  0  0  0  0  0  0  0  0  0  0
    1.9867   19.8859   18.8912 C   0  0  0  0  0  0  0  0  0  0  0  0
    2.6068   21.1156   19.5458 C   0  0  0  0  0  0  0  0  0  0  0  0
    4.1451   21.1090   19.4449 C   0  0  0  0  0  0  0  0  0  0  0  0
    4.7091   19.6743   19.4922 C   0  0  0  0  0  0  0  0  0  0  0  0
    3.7634   18.6900   20.1736 C   0  0  0  0  0  0  0  0  0  0  0  0
   -0.3105   16.3499   18.5548 C   0  0  0  0  0  0  0  0  0  0  0  0
    0.4101   17.4480   18.9991 C   0  0  0  0  0  0  0  0  0  0  0  0
   -0.4358   18.8957   18.6432 S   0  0  0  0  0  0  0  0  0  0  0  0
   -1.6600   17.9724   17.8844 C   0  0  0  0  0  0  0  0  0  0  0  0
   -1.4900   16.6696   17.8898 N   0  0  0  0  0  0  0  0  0  0  0  0
   -0.0873   14.5096   20.2314 C   0  0  0  0  0  0  0  0  0  0  0  0
    0.0266   14.8950   18.7559 C   0  0  0  0  0  0  0  0  0  0  0  0
   -0.8537   13.9835   17.8978 C   0  0  0  0  0  0  0  0  0  0  0  0
    4.7378   22.0278   20.5338 C   0  0  0  0  0  0  0  0  0  0  0  0
    6.2571   21.8763   20.6938 C   0  0  0  0  0  0  0  0  0  0  0  0
    6.6649   21.4281   22.0990 C   0  0  0  0  0  0  0  0  0  0  0  0
    6.2809   20.0682   22.4104 N   0  0  0  0  0  0  0  0  0  0  0  0
    6.9422   18.9340   22.0273 C   0  0  0  0  0  0  0  0  0  0  0  0
    6.1965   17.8996   22.5430 C   0  0  0  0  0  0  0  0  0  0  0  0
    5.1010   18.3782   23.2169 N   0  0  0  0  0  0  0  0  0  0  0  0
    5.1723   19.6863   23.1108 C   0  0  0  0  0  0  0  0  0  0  0  0
 14 15  1  0  0  0
 15 16  1  0  0  0
 15  9  1  0  0  0
  9 10  2  0  0  0
 10  1  1  0  0  0
  1  2  2  0  0  0
  1  3  1  0  0  0
  3  4  1  0  0  0
  4  5  1  0  0  0
  5  6  1  0  0  0
  6 17  1  0  0  0
 17 18  1  0  0  0
 18 19  1  0  0  0
 19 20  1  0  0  0
 20 21  1  0  0  0
 21 22  2  0  0  0
 22 23  1  0  0  0
 23 24  2  0  0  0
  6  7  1  0  0  0
  7  8  1  0  0  0
 10 11  1  0  0  0
 11 12  1  0  0  0
 12 13  2  0  0  0
 13  9  1  0  0  0
  8  3  1  0  0  0
 24 20  1  0  0  0
M  END
> <minimizedAffinity>
-7.04076

$$$$
OCNT-2311653


 26 28  0  0  0  0  0  0  0  0999 V2000
    2.0513   20.8698   19.4580 O   0  0  0  0  0  0  0  0  0  0  0  0
    2.6726   19.8137   19.3832 C   0  0  0  0  0  0  0  0  0  0  0  0
    2.1015   18.5787   19.5967 N   0  0  0  0  0  0  0  0  0  0  0  0
    2.5980   17.7642   19.2560 H   0  0  0  0  0  0  0  0  0  0  0  0
    4.1481   19.7645   19.0423 C   0  0  0  0  0  0  0  0  0  0  0  0
    5.0107   20.2390   20.1824 C   0  0  0  0  0  0  0  0  0  0  0  0
    5.4932   21.5550   20.2204 C   0  0  0  0  0  0  0  0  0  0  0  0
    6.3082   21.9723   21.2747 C   0  0  0  0  0  0  0  0  0  0  0  0
    6.6395   21.0760   22.2857 C   0  0  0  0  0  0  0  0  0  0  0  0
    7.4237   21.4791   23.2935 F   0  0  0  0  0  0  0  0  0  0  0  0
    6.1817   19.7671   22.2607 C   0  0  0  0  0  0  0  0  0  0  0  0
    5.3798   19.3574   21.2037 C   0  0  0  0  0  0  0  0  0  0  0  0
    4.9702   18.0808   21.1574 F   0  0  0  0  0  0  0  0  0  0  0  0
    0.6727   18.4632   19.7681 C   0  0  0  0  0  0  0  0  0  0  0  0
    0.0988   17.4231   18.8359 C   0  0  0  0  0  0  0  0  0  0  0  0
   -0.5776   17.8644   17.6824 C   0  0  0  0  0  0  0  0  0  0  0  0
   -1.1556   16.9563   16.7975 C   0  0  0  0  0  0  0  0  0  0  0  0
   -1.0761   15.5921   17.0550 C   0  0  0  0  0  0  0  0  0  0  0  0
   -0.4214   15.1381   18.2001 C   0  0  0  0  0  0  0  0  0  0  0  0
    0.1714   16.0369   19.1069 C   0  0  0  0  0  0  0  0  0  0  0  0
    0.8373   15.4992   20.2973 C   0  0  0  0  0  0  0  0  0  0  0  0
    0.2690   14.4676   21.0518 C   0  0  0  0  0  0  0  0  0  0  0  0
    0.9315   13.9805   22.1761 C   0  0  0  0  0  0  0  0  0  0  0  0
    2.1519   14.5400   22.5139 C   0  0  0  0  0  0  0  0  0  0  0  0
    2.7417   15.5287   21.8111 N   0  0  0  0  0  0  0  0  0  0  0  0
    2.0742   15.9813   20.7230 C   0  0  0  0  0  0  0  0  0  0  0  0
  1  2  2  0  0  0
  2  5  1  0  0  0
  5  6  1  0  0  0
  6  7  1  0  0  0
  7  8  2  0  0  0
  8  9  1  0  0  0
  9 10  1  0  0  0
  9 11  2  0  0  0
 11 12  1  0  0  0
 12 13  1  0  0  0
  2  3  1  0  0  0
  3 14  1  0  0  0
 14 15  1  0  0  0
 15 16  2  0  0  0
 16 17  1  0  0  0
 17 18  2  0  0  0
 18 19  1  0  0  0
 19 20  2  0  0  0
 20 21  1  0  0  0
 21 22  1  0  0  0
 22 23  2  0  0  0
 23 24  1  0  0  0
 24 25  2  0  0  0
 25 26  1  0  0  0
 12  6  2  0  0  0
 20 15  1  0  0  0
 26 21  2  0  0  0
  3  4  1  0  0  0
M  END
> <minimizedAffinity>
-10.39880

$$$$
OCNT-2311661


 25 27  0  0  0  0  0  0  0  0999 V2000
    0.6086   18.3324   16.3904 C   0  0  0  0  0  0  0  0  0  0  0  0
   -0.2519   18.4990   17.6620 C   0  0  0  0  0  0  0  0  0  0  0  0
   -1.7113   18.7172   17.2121 C   0  0  0  0  0  0  0  0  0  0  0  0
    0.2094   19.7331   18.4612 C   0  0  0  0  0  0  0  0  0  0  0  0
    1.6253   19.6058   19.0258 C   0  0  0  0  0  0  0  0  0  0  0  0
    1.9841   18.1878   19.5121 C   0  0  0  0  0  0  0  0  0  0  0  0
    0.7146   17.3477   19.7929 C   0  0  0  0  0  0  0  0  0  0  0  0
   -0.1703   17.2139   18.5327 C   0  0  0  0  0  0  0  0  0  0  0  0
    0.9882   15.9660   20.3773 C   0  0  0  0  0  0  0  0  0  0  0  0
    2.0389   15.7365   21.2788 C   0  0  0  0  0  0  0  0  0  0  0  0
    2.2723   14.4582   21.7903 C   0  0  0  0  0  0  0  0  0  0  0  0
    1.4662   13.3909   21.4017 C   0  0  0  0  0  0  0  0  0  0  0  0
    0.4269   13.6002   20.4991 C   0  0  0  0  0  0  0  0  0  0  0  0
    0.1906   14.8782   19.9878 C   0  0  0  0  0  0  0  0  0  0  0  0
    2.8536   18.2675   20.6855 N   0  0  0  0  0  0  0  0  0  0  0  0
    4.1848   17.9118   20.6395 C   0  0  0  0  0  0  0  0  0  0  0  0
    4.7487   17.5340   19.6201 O   0  0  0  0  0  0  0  0  0  0  0  0
    2.4380   18.5136   21.5771 H   0  0  0  0  0  0  0  0  0  0  0  0
    4.8769   18.0551   21.9781 C   0  0  0  0  0  0  0  0  0  0  0  0
    4.7543   19.4751   22.5274 C   0  0  0  0  0  0  0  0  0  0  0  0
    5.5254   20.4723   21.7154 C   0  0  0  0  0  0  0  0  0  0  0  0
    5.0836   21.4785   20.8748 C   0  0  0  0  0  0  0  0  0  0  0  0
    6.0656   22.2237   20.2520 N   0  0  0  0  0  0  0  0  0  0  0  0
    7.2448   21.7937   20.6447 C   0  0  0  0  0  0  0  0  0  0  0  0
    7.2455   20.4930   21.7619 S   0  0  0  0  0  0  0  0  0  0  0  0
  1  2  1  0  0  0
  2  3  1  0  0  0
  2  4  1  0  0  0
  4  5  1  0  0  0
  5  6  1  0  0  0
  6 15  1  0  0  0
 15 16  1  0  0  0
 16 17  2  0  0  0
 16 19  1  0  0  0
 19 20  1  0  0  0
 20 21  1  0  0  0
 21 22  2  0  0  0
 22 23  1  0  0  0
 23 24  2  0  0  0
 24 25  1  0  0  0
  6  7  1  0  0  0
  7  9  1  0  0  0
  9 10  2  0  0  0
 10 11  1  0  0  0
 11 12  2  0  0  0
 12 13  1  0  0  0
 13 14  2  0  0  0
  7  8  1  0  0  0
  8  2  1  0  0  0
 25 21  1  0  0  0
 14  9  1  0  0  0
 15 18  1  0  0  0
M  END
> <minimizedAffinity>
-8.99736

$$$$
OCNT-2311669


 29 32  0  0  0  0  0  0  0  0999 V2000
    4.3580   15.5751   21.7221 O   0  0  0  0  0  0  0  0  0  0  0  0
    3.9204   16.6799   21.4246 C   0  0  0  0  0  0  0  0  0  0  0  0
    2.7070   16.9526   20.8181 N   0  0  0  0  0  0  0  0  0  0  0  0
    2.5516   17.9006   20.5029 H   0  0  0  0  0  0  0  0  0  0  0  0
    1.6861   16.0321   20.4976 C   0  0  0  0  0  0  0  0  0  0  0  0
    1.5066   14.9475   21.3640 C   0  0  0  0  0  0  0  0  0  0  0  0
    0.5214   13.9910   21.1127 C   0  0  0  0  0  0  0  0  0  0  0  0
   -0.2935   14.1065   19.9890 C   0  0  0  0  0  0  0  0  0  0  0  0
   -0.1266   15.1793   19.1033 C   0  0  0  0  0  0  0  0  0  0  0  0
    0.8683   16.1371   19.3698 C   0  0  0  0  0  0  0  0  0  0  0  0
   -0.9942   15.3113   17.8763 C   0  0  0  0  0  0  0  0  0  0  0  0
   -1.0556   16.6838   17.4046 N   0  0  0  0  0  0  0  0  0  0  0  0
   -1.9903   17.6213   17.7500 C   0  0  0  0  0  0  0  0  0  0  0  0
   -1.6047   18.7647   17.0895 C   0  0  0  0  0  0  0  0  0  0  0  0
   -0.4612   18.5471   16.3653 N   0  0  0  0  0  0  0  0  0  0  0  0
   -0.1523   17.2867   16.5751 C   0  0  0  0  0  0  0  0  0  0  0  0
    4.7777   17.8726   21.6854 C   0  0  0  0  0  0  0  0  0  0  0  0
    4.3189   19.1271   21.2687 C   0  0  0  0  0  0  0  0  0  0  0  0
    5.0947   20.2679   21.4850 C   0  0  0  0  0  0  0  0  0  0  0  0
    6.3441   20.1699   22.1157 C   0  0  0  0  0  0  0  0  0  0  0  0
    6.8077   18.9080   22.5158 C   0  0  0  0  0  0  0  0  0  0  0  0
    6.0327   17.7642   22.2979 C   0  0  0  0  0  0  0  0  0  0  0  0
    7.1814   21.4109   22.3464 C   0  0  0  0  0  0  0  0  0  0  0  0
    7.9587   21.8436   21.1519 C   0  0  0  0  0  0  0  0  0  0  0  0
    7.4842   22.3699   20.0416 N   0  0  0  0  0  0  0  0  0  0  0  0
    8.5427   22.6171   19.1989 N   0  0  0  0  0  0  0  0  0  0  0  0
    9.6368   22.2318   19.8106 C   0  0  0  0  0  0  0  0  0  0  0  0
    9.3201   21.7322   21.0349 N   0  0  0  0  0  0  0  0  0  0  0  0
    9.9576   21.3794   21.7332 H   0  0  0  0  0  0  0  0  0  0  0  0
  1  2  2  0  0  0
  2  3  1  0  0  0
  3  5  1  0  0  0
  5  6  1  0  0  0
  6  7  2  0  0  0
  7  8  1  0  0  0
  8  9  2  0  0  0
  9 11  1  0  0  0
 11 12  1  0  0  0
 12 13  1  0  0  0
 13 14  2  0  0  0
 14 15  1  0  0  0
 15 16  2  0  0  0
  9 10  1  0  0  0
  2 17  1  0  0  0
 17 18  1  0  0  0
 18 19  2  0  0  0
 19 20  1  0  0  0
 20 23  1  0  0  0
 23 24  1  0  0  0
 24 25  2  0  0  0
 25 26  1  0  0  0
 26 27  2  0  0  0
 27 28  1  0  0  0
 20 21  2  0  0  0
 21 22  1  0  0  0
 10  5  2  0  0  0
 22 17  2  0  0  0
 16 12  1  0  0  0
 28 24  1  0  0  0
  3  4  1  0  0  0
 28 29  1  0  0  0
M  END
> <minimizedAffinity>
-2.76055

$$$$
OCNT-2311674


 26 28  0  0  0  0  0  0  0  0999 V2000
    3.7440   18.8434   20.8271 C   0  0  0  0  0  0  0  0  0  0  0  0
    3.5810   17.7535   21.3789 O   0  0  0  0  0  0  0  0  0  0  0  0
    2.8255   19.3654   19.9358 N   0  0  0  0  0  0  0  0  0  0  0  0
    2.9395   20.2721   19.5101 H   0  0  0  0  0  0  0  0  0  0  0  0
    7.3720   20.8902   23.2830 C   0  0  0  0  0  0  0  0  0  0  0  0
    6.5438   20.6032   22.1325 N   0  0  0  0  0  0  0  0  0  0  0  0
    5.5347   19.7276   22.2634 N   0  0  0  0  0  0  0  0  0  0  0  0
    4.9288   19.6975   21.0627 C   0  0  0  0  0  0  0  0  0  0  0  0
    5.6058   20.5647   20.1601 C   0  0  0  0  0  0  0  0  0  0  0  0
    6.6438   21.1272   20.8756 C   0  0  0  0  0  0  0  0  0  0  0  0
    7.6913   22.0923   20.4822 C   0  0  0  0  0  0  0  0  0  0  0  0
    8.7649   21.4502   19.9506 F   0  0  0  0  0  0  0  0  0  0  0  0
    7.2402   22.9398   19.5211 F   0  0  0  0  0  0  0  0  0  0  0  0
    1.6760   18.6956   19.6075 C   0  0  0  0  0  0  0  0  0  0  0  0
    1.6222   17.4771   19.1305 N   0  0  0  0  0  0  0  0  0  0  0  0
    0.2654   17.2436   18.9648 C   0  0  0  0  0  0  0  0  0  0  0  0
   -0.5022   18.2841   19.3239 N   0  0  0  0  0  0  0  0  0  0  0  0
    0.4063   19.1857   19.7233 N   0  0  0  0  0  0  0  0  0  0  0  0
    0.1225   20.1028   20.0577 H   0  0  0  0  0  0  0  0  0  0  0  0
   -0.2318   15.9758   18.4402 C   0  0  0  0  0  0  0  0  0  0  0  0
   -0.8133   15.9347   17.1599 C   0  0  0  0  0  0  0  0  0  0  0  0
   -1.3023   14.7369   16.6278 C   0  0  0  0  0  0  0  0  0  0  0  0
   -1.2176   13.5599   17.3672 C   0  0  0  0  0  0  0  0  0  0  0  0
   -0.6438   13.5833   18.6362 C   0  0  0  0  0  0  0  0  0  0  0  0
   -0.1566   14.7811   19.1643 C   0  0  0  0  0  0  0  0  0  0  0  0
    0.3896   14.7332   20.3887 F   0  0  0  0  0  0  0  0  0  0  0  0
  5  6  1  0  0  0
  6  7  1  0  0  0
  7  8  2  0  0  0
  8  1  1  0  0  0
  1  2  2  0  0  0
  1  3  1  0  0  0
  3 14  1  0  0  0
 14 15  2  0  0  0
 15 16  1  0  0  0
 16 20  1  0  0  0
 20 21  2  0  0  0
 21 22  1  0  0  0
 22 23  2  0  0  0
 23 24  1  0  0  0
 24 25  2  0  0  0
 25 26  1  0  0  0
 16 17  2  0  0  0
 17 18  1  0  0  0
  8  9  1  0  0  0
  9 10  2  0  0  0
 10 11  1  0  0  0
 11 12  1  0  0  0
 11 13  1  0  0  0
 10  6  1  0  0  0
 18 14  1  0  0  0
 25 20  1  0  0  0
  3  4  1  0  0  0
 18 19  1  0  0  0
M  END
> <minimizedAffinity>
-6.14448

$$$$
OCNT-2311676


 26 29  0  0  0  0  0  0  0  0999 V2000
    4.7290   18.3092   23.3480 O   0  0  0  0  0  0  0  0  0  0  0  0
    4.7572   18.5509   22.1487 C   0  0  0  0  0  0  0  0  0  0  0  0
    4.0459   17.9067   21.1513 N   0  0  0  0  0  0  0  0  0  0  0  0
    4.0794   18.3163   20.2267 H   0  0  0  0  0  0  0  0  0  0  0  0
    5.6103   19.6611   21.6648 C   0  0  0  0  0  0  0  0  0  0  0  0
    6.9612   19.7491   22.0241 C   0  0  0  0  0  0  0  0  0  0  0  0
    7.7078   20.8122   21.5393 C   0  0  0  0  0  0  0  0  0  0  0  0
    7.2496   21.7927   20.7312 N   0  0  0  0  0  0  0  0  0  0  0  0
    5.9430   21.6710   20.4351 C   0  0  0  0  0  0  0  0  0  0  0  0
    5.0691   20.6714   20.8491 C   0  0  0  0  0  0  0  0  0  0  0  0
    3.8022   20.9796   20.2757 C   0  0  0  0  0  0  0  0  0  0  0  0
    3.9410   22.1399   19.5429 C   0  0  0  0  0  0  0  0  0  0  0  0
    5.2454   22.5485   19.6506 N   0  0  0  0  0  0  0  0  0  0  0  0
    5.6547   23.3698   19.2297 H   0  0  0  0  0  0  0  0  0  0  0  0
    3.1994   16.7876   21.2926 C   0  0  0  0  0  0  0  0  0  0  0  0
    1.9769   16.8186   20.6121 C   0  0  0  0  0  0  0  0  0  0  0  0
    1.0845   15.7446   20.6935 C   0  0  0  0  0  0  0  0  0  0  0  0
    1.4029   14.6102   21.4510 C   0  0  0  0  0  0  0  0  0  0  0  0
    2.6264   14.5831   22.1319 C   0  0  0  0  0  0  0  0  0  0  0  0
    3.5159   15.6613   22.0514 C   0  0  0  0  0  0  0  0  0  0  0  0
    0.4478   13.4471   21.5515 C   0  0  0  0  0  0  0  0  0  0  0  0
   -0.3194   13.4736   22.7852 N   0  0  0  0  0  0  0  0  0  0  0  0
   -0.4626   14.5405   23.6296 C   0  0  0  0  0  0  0  0  0  0  0  0
   -1.2305   14.0684   24.6686 C   0  0  0  0  0  0  0  0  0  0  0  0
   -1.5466   12.7481   24.4794 N   0  0  0  0  0  0  0  0  0  0  0  0
   -0.9835   12.4158   23.3393 C   0  0  0  0  0  0  0  0  0  0  0  0
  1  2  2  0  0  0
  2  3  1  0  0  0
  3 15  1  0  0  0
 15 16  1  0  0  0
 16 17  2  0  0  0
 17 18  1  0  0  0
 18 21  1  0  0  0
 21 22  1  0  0  0
 22 23  1  0  0  0
 23 24  2  0  0  0
 24 25  1  0  0  0
 25 26  2  0  0  0
 18 19  2  0  0  0
 19 20  1  0  0  0
  2  5  1  0  0  0
  5  6  2  0  0  0
  6  7  1  0  0  0
  7  8  2  0  0  0
  8  9  1  0  0  0
  9 10  2  0  0  0
 10 11  1  0  0  0
 11 12  2  0  0  0
 12 13  1  0  0  0
 20 15  2  0  0  0
 10  5  1  0  0  0
 26 22  1  0  0  0
 13  9  1  0  0  0
  3  4  1  0  0  0
 13 14  1  0  0  0
M  END
> <minimizedAffinity>
-6.78170

$$$$
OCNT-2311686


 26 29  0  0  0  0  0  0  0  0999 V2000
    3.9710   17.7401   21.6127 C   0  0  0  0  0  0  0  0  0  0  0  0
    3.4720   18.5792   20.6143 C   0  0  0  0  0  0  0  0  0  0  0  0
    2.4200   18.1378   19.8084 C   0  0  0  0  0  0  0  0  0  0  0  0
    1.8526   16.8652   19.9938 C   0  0  0  0  0  0  0  0  0  0  0  0
    2.3710   16.0414   21.0089 C   0  0  0  0  0  0  0  0  0  0  0  0
    3.4232   16.4738   21.8204 C   0  0  0  0  0  0  0  0  0  0  0  0
    0.7518   16.4084   19.1418 C   0  0  0  0  0  0  0  0  0  0  0  0
    0.2464   15.0946   19.2163 C   0  0  0  0  0  0  0  0  0  0  0  0
   -0.8057   14.6698   18.4022 C   0  0  0  0  0  0  0  0  0  0  0  0
   -1.3966   15.5343   17.4780 C   0  0  0  0  0  0  0  0  0  0  0  0
   -0.8856   16.8332   17.4055 C   0  0  0  0  0  0  0  0  0  0  0  0
    0.1622   17.2861   18.2028 C   0  0  0  0  0  0  0  0  0  0  0  0
    0.3553   18.6263   17.7864 C   0  0  0  0  0  0  0  0  0  0  0  0
   -0.4965   19.0038   16.8296 N   0  0  0  0  0  0  0  0  0  0  0  0
   -1.2317   17.8996   16.6171 N   0  0  0  0  0  0  0  0  0  0  0  0
   -1.9592   17.9360   15.9126 H   0  0  0  0  0  0  0  0  0  0  0  0
    6.5012   17.5594   22.2879 O   0  0  0  0  0  0  0  0  0  0  0  0
    5.3113   18.3127   22.6250 S   0  0  0  0  0  0  0  0  0  0  0  0
    4.8233   18.3770   23.9856 O   0  0  0  0  0  0  0  0  0  0  0  0
    5.5486   19.9098   22.0661 N   0  0  0  0  0  0  0  0  0  0  0  0
    4.9328   20.2070   20.7338 C   0  0  0  0  0  0  0  0  0  0  0  0
    5.1293   21.6924   20.3722 C   0  0  0  0  0  0  0  0  0  0  0  0
    6.5431   22.1113   20.3705 N   0  0  0  0  0  0  0  0  0  0  0  0
    7.1344   21.7994   21.6860 C   0  0  0  0  0  0  0  0  0  0  0  0
    6.9895   20.3187   22.0870 C   0  0  0  0  0  0  0  0  0  0  0  0
    7.0394   21.5728   19.6595 H   0  0  0  0  0  0  0  0  0  0  0  0
 17 18  2  0  0  0
 18 19  2  0  0  0
 18  1  1  0  0  0
  1  2  1  0  0  0
  2  3  2  0  0  0
  3  4  1  0  0  0
  4  7  1  0  0  0
  7  8  1  0  0  0
  8  9  2  0  0  0
  9 10  1  0  0  0
 10 11  2  0  0  0
 11 12  1  0  0  0
 12 13  1  0  0  0
 13 14  2  0  0  0
 14 15  1  0  0  0
  4  5  2  0  0  0
  5  6  1  0  0  0
 18 20  1  0  0  0
 20 21  1  0  0  0
 21 22  1  0  0  0
 22 23  1  0  0  0
 23 24  1  0  0  0
 24 25  1  0  0  0
  6  1  2  0  0  0
 25 20  1  0  0  0
 12  7  2  0  0  0
 15 11  1  0  0  0
 15 16  1  0  0  0
 23 26  1  0  0  0
M  END
> <minimizedAffinity>
-9.47548

$$$$
OCNT-2311688


 22 24  0  0  0  0  0  0  0  0999 V2000
    2.5714   16.5431   20.9464 N   0  0  0  0  0  0  0  0  0  0  0  0
    2.3763   17.7660   20.3400 C   0  0  0  0  0  0  0  0  0  0  0  0
    1.3630   18.1370   19.7591 O   0  0  0  0  0  0  0  0  0  0  0  0
    3.4802   16.3135   21.3243 H   0  0  0  0  0  0  0  0  0  0  0  0
    3.5788   18.6486   20.4098 C   0  0  0  0  0  0  0  0  0  0  0  0
    4.4287   18.4764   21.4380 C   0  0  0  0  0  0  0  0  0  0  0  0
    5.5653   19.2747   21.5437 N   0  0  0  0  0  0  0  0  0  0  0  0
    6.4992   19.2410   22.5327 N   0  0  0  0  0  0  0  0  0  0  0  0
    7.3796   20.1893   22.2036 C   0  0  0  0  0  0  0  0  0  0  0  0
    7.0331   20.8453   21.0200 C   0  0  0  0  0  0  0  0  0  0  0  0
    8.0093   22.2287   20.2327 Br  0  0  0  0  0  0  0  0  0  0  0  0
    5.8691   20.2606   20.5965 C   0  0  0  0  0  0  0  0  0  0  0  0
    4.9898   20.4234   19.4879 C   0  0  0  0  0  0  0  0  0  0  0  0
    3.8925   19.6483   19.3934 C   0  0  0  0  0  0  0  0  0  0  0  0
    0.2932   14.0086   21.8431 N   0  0  0  0  0  0  0  0  0  0  0  0
    1.2855   14.8867   22.1786 C   0  0  0  0  0  0  0  0  0  0  0  0
    1.6050   15.5589   21.0221 C   0  0  0  0  0  0  0  0  0  0  0  0
    0.7466   15.0098   20.0446 C   0  0  0  0  0  0  0  0  0  0  0  0
   -0.0554   14.0637   20.5458 N   0  0  0  0  0  0  0  0  0  0  0  0
   -0.3717   13.0691   22.7273 C   0  0  0  0  0  0  0  0  0  0  0  0
   -1.8330   12.8283   24.7608 C   0  0  0  0  0  0  0  0  0  0  0  0
   -0.9017   13.7470   23.9872 C   0  0  0  0  0  0  0  0  0  0  0  0
 21 22  1  0  0  0
 22 20  1  0  0  0
 20 15  1  0  0  0
 15 16  1  0  0  0
 16 17  2  0  0  0
 17  1  1  0  0  0
  1  2  1  0  0  0
  2  3  2  0  0  0
  2  5  1  0  0  0
  5  6  2  0  0  0
  6  7  1  0  0  0
  7  8  1  0  0  0
  8  9  2  0  0  0
  9 10  1  0  0  0
 10 11  1  0  0  0
 10 12  2  0  0  0
 12 13  1  0  0  0
 13 14  2  0  0  0
 17 18  1  0  0  0
 18 19  2  0  0  0
 19 15  1  0  0  0
 14  5  1  0  0  0
 12  7  1  0  0  0
  1  4  1  0  0  0
M  END
> <minimizedAffinity>
-6.08173

$$$$
OCNT-2311689


 29 31  0  0  0  0  0  0  0  0999 V2000
    4.7472   17.0639   20.8785 C   0  0  0  0  0  0  0  0  0  0  0  0
    4.8042   18.5503   20.7125 C   0  0  0  0  0  0  0  0  0  0  0  0
    3.8924   19.4420   20.1667 C   0  0  0  0  0  0  0  0  0  0  0  0
    4.3245   20.7574   20.0950 N   0  0  0  0  0  0  0  0  0  0  0  0
    5.5220   20.8735   20.6204 C   0  0  0  0  0  0  0  0  0  0  0  0
    6.2681   22.1554   20.7356 C   0  0  0  0  0  0  0  0  0  0  0  0
    6.2241   19.4129   21.1774 S   0  0  0  0  0  0  0  0  0  0  0  0
    2.5937   19.0823   19.6190 C   0  0  0  0  0  0  0  0  0  0  0  0
    1.7405   20.0936   19.1603 C   0  0  0  0  0  0  0  0  0  0  0  0
    0.4829   19.7833   18.6284 C   0  0  0  0  0  0  0  0  0  0  0  0
    0.0611   18.4559   18.5590 C   0  0  0  0  0  0  0  0  0  0  0  0
    0.9037   17.4478   19.0332 C   0  0  0  0  0  0  0  0  0  0  0  0
    2.1588   17.7558   19.5676 C   0  0  0  0  0  0  0  0  0  0  0  0
   -1.1349   18.0160   18.0632 O   0  0  0  0  0  0  0  0  0  0  0  0
   -1.6773   18.7342   16.9627 C   0  0  0  0  0  0  0  0  0  0  0  0
    2.9271   15.6102   21.5586 N   0  0  0  0  0  0  0  0  0  0  0  0
    3.7213   16.6822   21.9377 C   0  0  0  0  0  0  0  0  0  0  0  0
    3.6467   17.2992   22.9960 O   0  0  0  0  0  0  0  0  0  0  0  0
    3.1605   15.1660   20.6785 H   0  0  0  0  0  0  0  0  0  0  0  0
   -0.3136   13.7986   23.5851 C   0  0  0  0  0  0  0  0  0  0  0  0
   -0.2639   13.8552   22.1881 C   0  0  0  0  0  0  0  0  0  0  0  0
    0.8234   14.4608   21.5467 C   0  0  0  0  0  0  0  0  0  0  0  0
    1.8754   15.0177   22.2861 C   0  0  0  0  0  0  0  0  0  0  0  0
    1.8217   14.9603   23.6794 C   0  0  0  0  0  0  0  0  0  0  0  0
    0.7359   14.3544   24.3251 C   0  0  0  0  0  0  0  0  0  0  0  0
   -1.4426   13.1685   24.3229 C   0  0  0  0  0  0  0  0  0  0  0  0
   -1.9983   13.6860   25.2787 O   0  0  0  0  0  0  0  0  0  0  0  0
   -3.0902   11.5372   24.0493 C   0  0  0  0  0  0  0  0  0  0  0  0
   -1.7532   11.9634   23.7822 O   0  0  0  0  0  0  0  0  0  0  0  0
 28 29  1  0  0  0
 29 26  1  0  0  0
 26 27  2  0  0  0
 26 20  1  0  0  0
 20 21  1  0  0  0
 21 22  2  0  0  0
 22 23  1  0  0  0
 23 16  1  0  0  0
 16 17  1  0  0  0
 17 18  2  0  0  0
 17  1  1  0  0  0
  1  2  1  0  0  0
  2  3  2  0  0  0
  3  8  1  0  0  0
  8  9  1  0  0  0
  9 10  2  0  0  0
 10 11  1  0  0  0
 11 14  1  0  0  0
 14 15  1  0  0  0
 11 12  2  0  0  0
 12 13  1  0  0  0
  3  4  1  0  0  0
  4  5  2  0  0  0
  5  6  1  0  0  0
  5  7  1  0  0  0
 23 24  2  0  0  0
 24 25  1  0  0  0
 25 20  2  0  0  0
  7  2  1  0  0  0
 13  8  2  0  0  0
 16 19  1  0  0  0
M  END
> <minimizedAffinity>
-6.42892

$$$$
OCNT-2311706


 23 26  0  0  0  0  0  0  0  0999 V2000
    1.3131   19.5525   19.3943 O   0  0  0  0  0  0  0  0  0  0  0  0
    1.6585   18.4916   19.8940 C   0  0  0  0  0  0  0  0  0  0  0  0
    0.8502   17.3343   19.9354 N   0  0  0  0  0  0  0  0  0  0  0  0
    1.5539   16.3171   20.5750 C   0  0  0  0  0  0  0  0  0  0  0  0
    1.1660   15.0283   20.8782 C   0  0  0  0  0  0  0  0  0  0  0  0
    2.0939   14.2353   21.5478 C   0  0  0  0  0  0  0  0  0  0  0  0
    3.3381   14.7784   21.8709 C   0  0  0  0  0  0  0  0  0  0  0  0
    3.7233   16.0441   21.5754 N   0  0  0  0  0  0  0  0  0  0  0  0
    2.8182   16.7918   20.9224 C   0  0  0  0  0  0  0  0  0  0  0  0
    2.9038   18.1420   20.5027 N   0  0  0  0  0  0  0  0  0  0  0  0
    4.0312   18.9883   20.6894 C   0  0  0  0  0  0  0  0  0  0  0  0
    4.9204   18.8479   21.7682 C   0  0  0  0  0  0  0  0  0  0  0  0
    6.0277   19.6941   21.9292 C   0  0  0  0  0  0  0  0  0  0  0  0
    6.2704   20.7027   21.0073 C   0  0  0  0  0  0  0  0  0  0  0  0
    7.6262   21.7410   21.2020 Cl  0  0  0  0  0  0  0  0  0  0  0  0
    5.4157   20.8680   19.9269 C   0  0  0  0  0  0  0  0  0  0  0  0
    4.3113   20.0177   19.7727 C   0  0  0  0  0  0  0  0  0  0  0  0
   -0.5336   17.2830   19.5223 C   0  0  0  0  0  0  0  0  0  0  0  0
   -0.7145   17.0839   18.0078 C   0  0  0  0  0  0  0  0  0  0  0  0
    0.4409   17.5847   17.3109 O   0  0  0  0  0  0  0  0  0  0  0  0
   -0.0278   18.7534   16.6366 C   0  0  0  0  0  0  0  0  0  0  0  0
   -1.4712   18.4380   16.3574 C   0  0  0  0  0  0  0  0  0  0  0  0
   -1.8907   17.7573   17.5368 O   0  0  0  0  0  0  0  0  0  0  0  0
  1  2  2  0  0  0
  2  3  1  0  0  0
  3 18  1  0  0  0
 18 19  1  0  0  0
 19 20  1  0  0  0
 20 21  1  0  0  0
 21 22  1  0  0  0
 22 23  1  0  0  0
  3  4  1  0  0  0
  4  5  1  0  0  0
  5  6  2  0  0  0
  6  7  1  0  0  0
  7  8  2  0  0  0
  8  9  1  0  0  0
  9 10  1  0  0  0
 10 11  1  0  0  0
 11 12  1  0  0  0
 12 13  2  0  0  0
 13 14  1  0  0  0
 14 15  1  0  0  0
 14 16  2  0  0  0
 16 17  1  0  0  0
 10  2  1  0  0  0
 17 11  2  0  0  0
 23 19  1  0  0  0
  9  4  2  0  0  0
M  END
> <minimizedAffinity>
-10.45990

$$$$
OCNT-2311707


 29 31  0  0  0  0  0  0  0  0999 V2000
    2.6954   15.4975   21.9315 C   0  0  0  0  0  0  0  0  0  0  0  0
    3.4091   14.2805   21.3168 C   0  0  0  0  0  0  0  0  0  0  0  0
    1.8316   15.0286   23.1215 C   0  0  0  0  0  0  0  0  0  0  0  0
    1.8740   16.1730   20.9141 N   0  0  0  0  0  0  0  0  0  0  0  0
    0.8161   15.5961   20.2383 C   0  0  0  0  0  0  0  0  0  0  0  0
    0.2945   14.5334   20.5504 O   0  0  0  0  0  0  0  0  0  0  0  0
    2.3151   16.9721   20.4648 H   0  0  0  0  0  0  0  0  0  0  0  0
    0.3176   16.3595   19.0647 C   0  0  0  0  0  0  0  0  0  0  0  0
   -0.4564   15.7329   18.0692 C   0  0  0  0  0  0  0  0  0  0  0  0
   -0.9202   16.4525   16.9693 C   0  0  0  0  0  0  0  0  0  0  0  0
   -0.6364   17.8130   16.8286 C   0  0  0  0  0  0  0  0  0  0  0  0
    0.1200   18.4297   17.8330 C   0  0  0  0  0  0  0  0  0  0  0  0
    0.6001   17.7411   18.9514 C   0  0  0  0  0  0  0  0  0  0  0  0
    1.3166   18.6925   19.7373 C   0  0  0  0  0  0  0  0  0  0  0  0
    1.2564   19.9085   19.0973 C   0  0  0  0  0  0  0  0  0  0  0  0
    0.5304   19.7394   17.9502 N   0  0  0  0  0  0  0  0  0  0  0  0
    0.3196   20.4675   17.2819 H   0  0  0  0  0  0  0  0  0  0  0  0
    3.7456   16.4858   22.5081 C   0  0  0  0  0  0  0  0  0  0  0  0
    4.5574   18.7253   22.1036 N   0  0  0  0  0  0  0  0  0  0  0  0
    4.2874   17.5036   21.5106 C   0  0  0  0  0  0  0  0  0  0  0  0
    4.3905   17.2443   20.3159 O   0  0  0  0  0  0  0  0  0  0  0  0
    4.3637   18.8009   23.0930 H   0  0  0  0  0  0  0  0  0  0  0  0
    7.3688   19.4010   22.4560 C   0  0  0  0  0  0  0  0  0  0  0  0
    6.4180   20.2272   21.6344 C   0  0  0  0  0  0  0  0  0  0  0  0
    6.9085   21.3811   21.0044 C   0  0  0  0  0  0  0  0  0  0  0  0
    6.0476   22.1534   20.2441 C   0  0  0  0  0  0  0  0  0  0  0  0
    4.7471   21.8601   20.0683 N   0  0  0  0  0  0  0  0  0  0  0  0
    4.2845   20.7410   20.6830 C   0  0  0  0  0  0  0  0  0  0  0  0
    5.0598   19.8902   21.4735 C   0  0  0  0  0  0  0  0  0  0  0  0
 23 24  1  0  0  0
 24 25  2  0  0  0
 25 26  1  0  0  0
 26 27  2  0  0  0
 27 28  1  0  0  0
 28 29  2  0  0  0
 29 19  1  0  0  0
 19 20  1  0  0  0
 20 21  2  0  0  0
 20 18  1  0  0  0
 18  1  1  0  0  0
  1  2  1  0  0  0
  1  3  1  0  0  0
  1  4  1  0  0  0
  4  5  1  0  0  0
  5  6  2  0  0  0
  5  8  1  0  0  0
  8  9  1  0  0  0
  9 10  2  0  0  0
 10 11  1  0  0  0
 11 12  2  0  0  0
 12 13  1  0  0  0
 13 14  1  0  0  0
 14 15  2  0  0  0
 15 16  1  0  0  0
 29 24  1  0  0  0
 13  8  2  0  0  0
 16 12  1  0  0  0
 19 22  1  0  0  0
  4  7  1  0  0  0
 16 17  1  0  0  0
M  END
> <minimizedAffinity>
-8.34096

$$$$
OCNT-2311709


 22 25  0  0  0  0  0  0  0  0999 V2000
    7.4031   19.3594   22.7329 C   0  0  0  0  0  0  0  0  0  0  0  0
    6.3484   19.9395   21.9146 N   0  0  0  0  0  0  0  0  0  0  0  0
    6.4679   21.2743   21.5309 C   0  0  0  0  0  0  0  0  0  0  0  0
    7.4471   21.9754   21.7895 O   0  0  0  0  0  0  0  0  0  0  0  0
    5.2616   21.8828   20.8553 C   0  0  0  0  0  0  0  0  0  0  0  0
    4.6484   20.9213   19.8632 C   0  0  0  0  0  0  0  0  0  0  0  0
    4.3607   19.6094   20.5349 C   0  0  0  0  0  0  0  0  0  0  0  0
    3.2718   18.8263   20.1108 C   0  0  0  0  0  0  0  0  0  0  0  0
    3.0249   17.5700   20.6778 C   0  0  0  0  0  0  0  0  0  0  0  0
    3.8949   17.1104   21.6733 C   0  0  0  0  0  0  0  0  0  0  0  0
    4.9902   17.8785   22.0872 C   0  0  0  0  0  0  0  0  0  0  0  0
    5.2339   19.1372   21.5267 C   0  0  0  0  0  0  0  0  0  0  0  0
    1.8966   16.7353   20.2717 C   0  0  0  0  0  0  0  0  0  0  0  0
    1.5771   15.5147   20.8335 C   0  0  0  0  0  0  0  0  0  0  0  0
    0.1831   14.8607   20.0810 S   0  0  0  0  0  0  0  0  0  0  0  0
    0.0867   16.2516   19.0692 C   0  0  0  0  0  0  0  0  0  0  0  0
    1.0347   17.1478   19.2651 N   0  0  0  0  0  0  0  0  0  0  0  0
   -1.0217   16.3585   18.0520 C   0  0  0  0  0  0  0  0  0  0  0  0
   -0.5253   16.5529   16.6255 C   0  0  0  0  0  0  0  0  0  0  0  0
   -0.4564   18.0551   16.4948 C   0  0  0  0  0  0  0  0  0  0  0  0
   -1.6363   18.4966   17.3312 C   0  0  0  0  0  0  0  0  0  0  0  0
   -1.7989   17.5302   18.3783 O   0  0  0  0  0  0  0  0  0  0  0  0
  1  2  1  0  0  0
  2  3  1  0  0  0
  3  4  2  0  0  0
  3  5  1  0  0  0
  5  6  1  0  0  0
  6  7  1  0  0  0
  7  8  1  0  0  0
  8  9  2  0  0  0
  9 13  1  0  0  0
 13 14  2  0  0  0
 14 15  1  0  0  0
 15 16  1  0  0  0
 16 18  1  0  0  0
 18 19  1  0  0  0
 19 20  1  0  0  0
 20 21  1  0  0  0
 21 22  1  0  0  0
 16 17  2  0  0  0
  9 10  1  0  0  0
 10 11  2  0  0  0
 11 12  1  0  0  0
 12  2  1  0  0  0
 12  7  2  0  0  0
 17 13  1  0  0  0
 22 18  1  0  0  0
M  END
> <minimizedAffinity>
-9.87020

$$$$
OCNT-2311728


 24 26  0  0  0  0  0  0  0  0999 V2000
    3.7469   15.9371   21.7630 C   0  0  0  0  0  0  0  0  0  0  0  0
    4.0126   17.2850   21.2967 N   0  0  0  0  0  0  0  0  0  0  0  0
    3.1804   17.7623   20.3200 N   0  0  0  0  0  0  0  0  0  0  0  0
    3.3424   18.9734   19.8810 C   0  0  0  0  0  0  0  0  0  0  0  0
    4.3755   19.8940   20.4088 C   0  0  0  0  0  0  0  0  0  0  0  0
    4.5444   21.2094   19.9581 C   0  0  0  0  0  0  0  0  0  0  0  0
    5.5449   22.0166   20.5083 C   0  0  0  0  0  0  0  0  0  0  0  0
    6.3783   21.5191   21.5080 C   0  0  0  0  0  0  0  0  0  0  0  0
    6.2088   20.2126   21.9637 C   0  0  0  0  0  0  0  0  0  0  0  0
    5.2058   19.4027   21.4126 C   0  0  0  0  0  0  0  0  0  0  0  0
    5.0211   18.0254   21.9038 C   0  0  0  0  0  0  0  0  0  0  0  0
    5.7402   17.6008   22.8052 O   0  0  0  0  0  0  0  0  0  0  0  0
    2.4032   19.4222   18.7855 C   0  0  0  0  0  0  0  0  0  0  0  0
    1.1311   20.0020   19.3293 C   0  0  0  0  0  0  0  0  0  0  0  0
    0.9767   21.1890   19.5863 O   0  0  0  0  0  0  0  0  0  0  0  0
    0.1913   19.0386   19.5066 O   0  0  0  0  0  0  0  0  0  0  0  0
   -0.2353   18.4099   18.2934 C   0  0  0  0  0  0  0  0  0  0  0  0
   -0.2406   16.9221   18.4996 C   0  0  0  0  0  0  0  0  0  0  0  0
   -0.7820   16.0665   17.5415 C   0  0  0  0  0  0  0  0  0  0  0  0
   -0.8470   14.7200   17.6713 N   0  0  0  0  0  0  0  0  0  0  0  0
   -0.3481   14.1992   18.8173 C   0  0  0  0  0  0  0  0  0  0  0  0
    0.2037   14.9650   19.8273 C   0  0  0  0  0  0  0  0  0  0  0  0
    0.6757   14.3908   20.9403 F   0  0  0  0  0  0  0  0  0  0  0  0
    0.2545   16.3429   19.6744 C   0  0  0  0  0  0  0  0  0  0  0  0
  1  2  1  0  0  0
  2  3  1  0  0  0
  3  4  2  0  0  0
  4 13  1  0  0  0
 13 14  1  0  0  0
 14 15  2  0  0  0
 14 16  1  0  0  0
 16 17  1  0  0  0
 17 18  1  0  0  0
 18 19  2  0  0  0
 19 20  1  0  0  0
 20 21  2  0  0  0
 21 22  1  0  0  0
 22 23  1  0  0  0
 22 24  2  0  0  0
  4  5  1  0  0  0
  5  6  2  0  0  0
  6  7  1  0  0  0
  7  8  2  0  0  0
  8  9  1  0  0  0
  9 10  2  0  0  0
 10 11  1  0  0  0
 11 12  2  0  0  0
 11  2  1  0  0  0
 24 18  1  0  0  0
 10  5  1  0  0  0
M  END
> <minimizedAffinity>
-10.36877

$$$$
OCNT-2311731


 28 31  0  0  0  0  0  0  0  0999 V2000
    3.6657   16.7570   20.6487 O   0  0  0  0  0  0  0  0  0  0  0  0
    2.4418   16.8070   20.5754 C   0  0  0  0  0  0  0  0  0  0  0  0
    1.7721   17.7737   19.8478 N   0  0  0  0  0  0  0  0  0  0  0  0
    0.7981   17.9316   20.0729 H   0  0  0  0  0  0  0  0  0  0  0  0
    2.5062   18.8688   19.2367 C   0  0  0  0  0  0  0  0  0  0  0  0
    3.6638   19.3519   20.1061 C   0  0  0  0  0  0  0  0  0  0  0  0
    3.9678   20.7252   19.5073 C   0  0  0  0  0  0  0  0  0  0  0  0
    2.5758   21.3329   19.2987 C   0  0  0  0  0  0  0  0  0  0  0  0
    1.6543   20.1412   19.0133 C   0  0  0  0  0  0  0  0  0  0  0  0
    1.1812   20.1951   17.6729 O   0  0  0  0  0  0  0  0  0  0  0  0
    0.6610   19.3674   17.5509 H   0  0  0  0  0  0  0  0  0  0  0  0
    4.9533   21.5959   20.2923 C   0  0  0  0  0  0  0  0  0  0  0  0
    5.9037   20.8894   21.1234 N   0  0  0  0  0  0  0  0  0  0  0  0
    7.2649   20.9992   21.0787 C   0  0  0  0  0  0  0  0  0  0  0  0
    7.7239   20.1121   22.0243 C   0  0  0  0  0  0  0  0  0  0  0  0
    6.6799   19.4523   22.6193 N   0  0  0  0  0  0  0  0  0  0  0  0
    5.5990   19.9230   22.0402 C   0  0  0  0  0  0  0  0  0  0  0  0
    1.5983   15.8264   21.3116 C   0  0  0  0  0  0  0  0  0  0  0  0
    1.9336   15.3693   22.5889 C   0  0  0  0  0  0  0  0  0  0  0  0
    1.1072   14.4461   23.2428 C   0  0  0  0  0  0  0  0  0  0  0  0
   -0.0706   13.9698   22.6452 C   0  0  0  0  0  0  0  0  0  0  0  0
   -0.3964   14.4469   21.3668 C   0  0  0  0  0  0  0  0  0  0  0  0
    0.4235   15.3710   20.7082 C   0  0  0  0  0  0  0  0  0  0  0  0
   -0.9324   12.9898   23.3251 C   0  0  0  0  0  0  0  0  0  0  0  0
   -1.2367   11.7528   22.9018 C   0  0  0  0  0  0  0  0  0  0  0  0
   -2.1128   11.0245   23.8671 C   0  0  0  0  0  0  0  0  0  0  0  0
   -2.5947   12.1392   24.7883 C   0  0  0  0  0  0  0  0  0  0  0  0
   -1.5617   13.2579   24.6633 C   0  0  0  0  0  0  0  0  0  0  0  0
  1  2  2  0  0  0
  2  3  1  0  0  0
  3  5  1  0  0  0
  5  6  1  0  0  0
  6  7  1  0  0  0
  7 12  1  0  0  0
 12 13  1  0  0  0
 13 14  1  0  0  0
 14 15  2  0  0  0
 15 16  1  0  0  0
 16 17  2  0  0  0
  7  8  1  0  0  0
  8  9  1  0  0  0
  9 10  1  0  0  0
  2 18  1  0  0  0
 18 19  1  0  0  0
 19 20  2  0  0  0
 20 21  1  0  0  0
 21 24  1  0  0  0
 24 25  2  0  0  0
 25 26  1  0  0  0
 26 27  1  0  0  0
 27 28  1  0  0  0
 21 22  2  0  0  0
 22 23  1  0  0  0
  9  5  1  0  0  0
 23 18  2  0  0  0
 17 13  1  0  0  0
 28 24  1  0  0  0
  3  4  1  0  0  0
 10 11  1  0  0  0
M  END
> <minimizedAffinity>
-2.52428

$$$$
OCNT-2311745


 24 26  0  0  0  0  0  0  0  0999 V2000
    1.7827   15.6297   20.8490 C   0  0  0  0  0  0  0  0  0  0  0  0
    1.8576   14.4028   21.4827 C   0  0  0  0  0  0  0  0  0  0  0  0
    3.0405   14.0832   22.1085 C   0  0  0  0  0  0  0  0  0  0  0  0
    4.1060   14.8955   22.1388 N   0  0  0  0  0  0  0  0  0  0  0  0
    3.9502   16.0865   21.5326 C   0  0  0  0  0  0  0  0  0  0  0  0
    2.8313   16.4723   20.8842 N   0  0  0  0  0  0  0  0  0  0  0  0
   -1.2800   16.9073   18.0927 C   0  0  0  0  0  0  0  0  0  0  0  0
   -0.4796   15.5885   18.0424 C   0  0  0  0  0  0  0  0  0  0  0  0
   -0.1511   15.0558   19.4351 C   0  0  0  0  0  0  0  0  0  0  0  0
    0.6118   16.0373   20.2105 N   0  0  0  0  0  0  0  0  0  0  0  0
    0.5910   17.4271   19.7411 C   0  0  0  0  0  0  0  0  0  0  0  0
   -0.8215   17.7754   19.2857 C   0  0  0  0  0  0  0  0  0  0  0  0
   -1.1791   17.6280   16.7955 N   0  0  0  0  0  0  0  0  0  0  0  0
   -1.9549   18.8729   16.7916 C   0  0  0  0  0  0  0  0  0  0  0  0
    0.2232   19.5095   16.7812 C   0  0  0  0  0  0  0  0  0  0  0  0
    0.2091   18.0843   16.6979 O   0  0  0  0  0  0  0  0  0  0  0  0
    5.1097   17.0520   21.5775 C   0  0  0  0  0  0  0  0  0  0  0  0
    4.9486   18.3542   22.8532 S   0  0  0  0  0  0  0  0  0  0  0  0
    5.3802   19.7816   21.8772 C   0  0  0  0  0  0  0  0  0  0  0  0
    6.5732   20.4718   22.1096 C   0  0  0  0  0  0  0  0  0  0  0  0
    6.9021   21.5858   21.3342 C   0  0  0  0  0  0  0  0  0  0  0  0
    6.0427   22.0102   20.3216 C   0  0  0  0  0  0  0  0  0  0  0  0
    4.8555   21.3201   20.0808 C   0  0  0  0  0  0  0  0  0  0  0  0
    4.5264   20.2056   20.8546 C   0  0  0  0  0  0  0  0  0  0  0  0
 15 16  1  0  0  0
 16 13  1  0  0  0
 13 14  1  0  0  0
 13  7  1  0  0  0
  7  8  1  0  0  0
  8  9  1  0  0  0
  9 10  1  0  0  0
 10  1  1  0  0  0
  1  2  1  0  0  0
  2  3  2  0  0  0
  3  4  1  0  0  0
  4  5  2  0  0  0
  5 17  1  0  0  0
 17 18  1  0  0  0
 18 19  1  0  0  0
 19 20  2  0  0  0
 20 21  1  0  0  0
 21 22  2  0  0  0
 22 23  1  0  0  0
 23 24  2  0  0  0
  5  6  1  0  0  0
 10 11  1  0  0  0
 11 12  1  0  0  0
 12  7  1  0  0  0
  6  1  2  0  0  0
 24 19  1  0  0  0
M  END
> <minimizedAffinity>
-8.90351

$$$$
OCNT-2311748


 27 30  0  0  0  0  0  0  0  0999 V2000
   -0.1740   17.9322   19.1275 N   0  0  0  0  0  0  0  0  0  0  0  0
   -0.7720   18.2727   19.8775 H   0  0  0  0  0  0  0  0  0  0  0  0
   -1.6030   14.0947   16.4940 C   0  0  0  0  0  0  0  0  0  0  0  0
   -1.0170   14.9507   17.4966 N   0  0  0  0  0  0  0  0  0  0  0  0
   -1.0624   16.3113   17.5368 C   0  0  0  0  0  0  0  0  0  0  0  0
   -0.3690   16.6735   18.6637 C   0  0  0  0  0  0  0  0  0  0  0  0
    0.0901   15.4445   19.2409 C   0  0  0  0  0  0  0  0  0  0  0  0
   -0.3542   14.3961   18.5237 N   0  0  0  0  0  0  0  0  0  0  0  0
    0.9075   15.2415   20.4379 C   0  0  0  0  0  0  0  0  0  0  0  0
    0.5297   14.3156   21.4204 C   0  0  0  0  0  0  0  0  0  0  0  0
    1.3215   14.1229   22.5555 C   0  0  0  0  0  0  0  0  0  0  0  0
    2.4933   14.8592   22.7222 C   0  0  0  0  0  0  0  0  0  0  0  0
    2.8717   15.7933   21.7595 C   0  0  0  0  0  0  0  0  0  0  0  0
    2.0806   15.9863   20.6245 C   0  0  0  0  0  0  0  0  0  0  0  0
    0.4155   18.9837   18.3246 C   0  0  0  0  0  0  0  0  0  0  0  0
    1.5704   19.6255   19.0004 C   0  0  0  0  0  0  0  0  0  0  0  0
    2.7554   19.1189   19.4867 C   0  0  0  0  0  0  0  0  0  0  0  0
    3.4614   20.2272   20.0317 C   0  0  0  0  0  0  0  0  0  0  0  0
    2.7388   21.3510   19.8820 N   0  0  0  0  0  0  0  0  0  0  0  0
    1.6114   20.9604   19.2727 N   0  0  0  0  0  0  0  0  0  0  0  0
    0.9066   21.6640   19.0756 H   0  0  0  0  0  0  0  0  0  0  0  0
    4.7789   20.2431   20.6777 C   0  0  0  0  0  0  0  0  0  0  0  0
    5.1598   19.2049   21.5341 C   0  0  0  0  0  0  0  0  0  0  0  0
    6.4100   19.2514   22.1273 C   0  0  0  0  0  0  0  0  0  0  0  0
    7.2973   20.2482   21.9296 N   0  0  0  0  0  0  0  0  0  0  0  0
    6.9145   21.2406   21.1006 C   0  0  0  0  0  0  0  0  0  0  0  0
    5.6854   21.2840   20.4602 C   0  0  0  0  0  0  0  0  0  0  0  0
  3  4  1  0  0  0
  4  5  1  0  0  0
  5  6  2  0  0  0
  6  1  1  0  0  0
  1 15  1  0  0  0
 15 16  1  0  0  0
 16 17  2  0  0  0
 17 18  1  0  0  0
 18 22  1  0  0  0
 22 23  2  0  0  0
 23 24  1  0  0  0
 24 25  2  0  0  0
 25 26  1  0  0  0
 26 27  2  0  0  0
 18 19  2  0  0  0
 19 20  1  0  0  0
  6  7  1  0  0  0
  7  9  1  0  0  0
  9 10  2  0  0  0
 10 11  1  0  0  0
 11 12  2  0  0  0
 12 13  1  0  0  0
 13 14  2  0  0  0
  7  8  2  0  0  0
  8  4  1  0  0  0
 20 16  1  0  0  0
 14  9  1  0  0  0
 27 22  1  0  0  0
  1  2  1  0  0  0
 20 21  1  0  0  0
M  END
> <minimizedAffinity>
-8.45232

$$$$
OCNT-2311751


 27 30  0  0  0  0  0  0  0  0999 V2000
    4.0262   15.3816   22.0712 O   0  0  0  0  0  0  0  0  0  0  0  0
    3.2114   16.0725   21.4756 C   0  0  0  0  0  0  0  0  0  0  0  0
    3.2764   17.4160   21.2307 N   0  0  0  0  0  0  0  0  0  0  0  0
    2.5008   17.8218   20.7178 H   0  0  0  0  0  0  0  0  0  0  0  0
    4.2444   18.3253   21.5732 C   0  0  0  0  0  0  0  0  0  0  0  0
    5.0312   17.9705   22.5965 N   0  0  0  0  0  0  0  0  0  0  0  0
    5.8781   18.9964   22.7382 N   0  0  0  0  0  0  0  0  0  0  0  0
    5.6799   20.0130   21.8510 C   0  0  0  0  0  0  0  0  0  0  0  0
    6.3470   21.2294   21.6861 C   0  0  0  0  0  0  0  0  0  0  0  0
    7.6643   21.6676   22.6966 Cl  0  0  0  0  0  0  0  0  0  0  0  0
    5.9132   22.0840   20.6740 C   0  0  0  0  0  0  0  0  0  0  0  0
    4.8450   21.7215   19.8591 C   0  0  0  0  0  0  0  0  0  0  0  0
    4.1870   20.4950   20.0397 C   0  0  0  0  0  0  0  0  0  0  0  0
    4.6051   19.6103   21.0575 C   0  0  0  0  0  0  0  0  0  0  0  0
    6.5817   18.9493   23.4673 H   0  0  0  0  0  0  0  0  0  0  0  0
    1.9834   15.4927   20.9116 C   0  0  0  0  0  0  0  0  0  0  0  0
    1.3826   14.3377   21.3751 C   0  0  0  0  0  0  0  0  0  0  0  0
   -0.0220   13.9916   20.4614 S   0  0  0  0  0  0  0  0  0  0  0  0
    0.2664   15.3871   19.4964 C   0  0  0  0  0  0  0  0  0  0  0  0
    1.3246   16.0945   19.8339 N   0  0  0  0  0  0  0  0  0  0  0  0
   -0.6759   15.7550   18.3882 C   0  0  0  0  0  0  0  0  0  0  0  0
   -0.8040   17.2545   18.1161 C   0  0  0  0  0  0  0  0  0  0  0  0
   -2.1511   17.7321   17.5726 C   0  0  0  0  0  0  0  0  0  0  0  0
   -1.8115   18.9538   16.7219 C   0  0  0  0  0  0  0  0  0  0  0  0
   -0.3741   19.1688   16.8944 N   0  0  0  0  0  0  0  0  0  0  0  0
    0.1972   17.8419   17.1319 C   0  0  0  0  0  0  0  0  0  0  0  0
    0.0305   19.5915   16.0602 H   0  0  0  0  0  0  0  0  0  0  0  0
  1  2  2  0  0  0
  2  3  1  0  0  0
  3  5  1  0  0  0
  5  6  2  0  0  0
  6  7  1  0  0  0
  7  8  1  0  0  0
  8  9  2  0  0  0
  9 10  1  0  0  0
  9 11  1  0  0  0
 11 12  2  0  0  0
 12 13  1  0  0  0
 13 14  2  0  0  0
  2 16  1  0  0  0
 16 17  2  0  0  0
 17 18  1  0  0  0
 18 19  1  0  0  0
 19 21  1  0  0  0
 21 22  1  0  0  0
 22 23  1  0  0  0
 23 24  1  0  0  0
 24 25  1  0  0  0
 25 26  1  0  0  0
 19 20  2  0  0  0
 14  5  1  0  0  0
 20 16  1  0  0  0
 14  8  1  0  0  0
 26 22  1  0  0  0
  3  4  1  0  0  0
  7 15  1  0  0  0
 25 27  1  0  0  0
M  END
> <minimizedAffinity>
-9.12346

$$$$
OCNT-2311754


 25 27  0  0  0  0  0  0  0  0999 V2000
    1.8942   14.9310   20.7735 N   0  0  0  0  0  0  0  0  0  0  0  0
    2.4361   15.0387   19.9178 H   0  0  0  0  0  0  0  0  0  0  0  0
    0.6536   15.6963   20.6589 C   0  0  0  0  0  0  0  0  0  0  0  0
   -1.4578   13.3378   16.7805 C   0  0  0  0  0  0  0  0  0  0  0  0
   -0.9435   14.3505   17.6695 N   0  0  0  0  0  0  0  0  0  0  0  0
   -0.3595   14.1603   18.8794 C   0  0  0  0  0  0  0  0  0  0  0  0
   -0.0281   15.4141   19.3619 C   0  0  0  0  0  0  0  0  0  0  0  0
   -0.4470   16.3139   18.3218 C   0  0  0  0  0  0  0  0  0  0  0  0
   -1.0122   15.6356   17.3094 N   0  0  0  0  0  0  0  0  0  0  0  0
   -0.3036   17.8337   18.2079 C   0  0  0  0  0  0  0  0  0  0  0  0
   -0.3947   18.5218   19.5830 C   0  0  0  0  0  0  0  0  0  0  0  0
   -1.4244   18.4479   17.3299 C   0  0  0  0  0  0  0  0  0  0  0  0
    1.0434   18.1866   17.5465 C   0  0  0  0  0  0  0  0  0  0  0  0
    2.7120   15.3222   21.9147 C   0  0  0  0  0  0  0  0  0  0  0  0
    3.4109   16.6254   21.6368 C   0  0  0  0  0  0  0  0  0  0  0  0
    2.9000   17.5526   20.7264 C   0  0  0  0  0  0  0  0  0  0  0  0
    3.5851   18.7443   20.4849 C   0  0  0  0  0  0  0  0  0  0  0  0
    4.7782   18.9778   21.1637 C   0  0  0  0  0  0  0  0  0  0  0  0
    5.2997   18.0868   22.0459 N   0  0  0  0  0  0  0  0  0  0  0  0
    4.6160   16.9373   22.2526 C   0  0  0  0  0  0  0  0  0  0  0  0
    5.5058   20.1804   20.9497 N   0  0  0  0  0  0  0  0  0  0  0  0
    6.7993   20.4905   21.3109 C   0  0  0  0  0  0  0  0  0  0  0  0
    7.0146   21.7751   20.8676 C   0  0  0  0  0  0  0  0  0  0  0  0
    5.9036   22.2700   20.2461 N   0  0  0  0  0  0  0  0  0  0  0  0
    5.0179   21.2989   20.3100 C   0  0  0  0  0  0  0  0  0  0  0  0
  4  5  1  0  0  0
  5  6  1  0  0  0
  6  7  2  0  0  0
  7  3  1  0  0  0
  3  1  1  0  0  0
  1 14  1  0  0  0
 14 15  1  0  0  0
 15 16  2  0  0  0
 16 17  1  0  0  0
 17 18  2  0  0  0
 18 21  1  0  0  0
 21 22  1  0  0  0
 22 23  2  0  0  0
 23 24  1  0  0  0
 24 25  2  0  0  0
 18 19  1  0  0  0
 19 20  2  0  0  0
  7  8  1  0  0  0
  8 10  1  0  0  0
 10 11  1  0  0  0
 10 12  1  0  0  0
 10 13  1  0  0  0
  8  9  2  0  0  0
  9  5  1  0  0  0
 20 15  1  0  0  0
 25 21  1  0  0  0
  1  2  1  0  0  0
M  END
> <minimizedAffinity>
-7.29082

$$$$
OCNT-2311779


 25 27  0  0  0  0  0  0  0  0999 V2000
    2.9607   18.8997   19.3831 C   0  0  0  0  0  0  0  0  0  0  0  0
    3.5834   18.0939   20.3363 C   0  0  0  0  0  0  0  0  0  0  0  0
    4.5950   18.5993   21.1842 C   0  0  0  0  0  0  0  0  0  0  0  0
    4.9500   19.9576   21.0285 C   0  0  0  0  0  0  0  0  0  0  0  0
    5.8639   20.8471   21.6436 C   0  0  0  0  0  0  0  0  0  0  0  0
    5.8261   22.0725   21.1167 N   0  0  0  0  0  0  0  0  0  0  0  0
    4.9007   21.9708   20.1484 N   0  0  0  0  0  0  0  0  0  0  0  0
    4.3222   20.7312   20.0573 C   0  0  0  0  0  0  0  0  0  0  0  0
    3.3270   20.2365   19.2095 C   0  0  0  0  0  0  0  0  0  0  0  0
    4.7048   22.7902   19.5841 H   0  0  0  0  0  0  0  0  0  0  0  0
    5.2230   17.7132   22.2256 C   0  0  0  0  0  0  0  0  0  0  0  0
    6.5638   17.5443   22.0533 F   0  0  0  0  0  0  0  0  0  0  0  0
    4.6875   16.4615   22.2250 F   0  0  0  0  0  0  0  0  0  0  0  0
    5.0683   18.1859   23.4928 F   0  0  0  0  0  0  0  0  0  0  0  0
    1.9832   18.3251   18.5175 N   0  0  0  0  0  0  0  0  0  0  0  0
    2.0168   17.3050   18.4508 H   0  0  0  0  0  0  0  0  0  0  0  0
   -0.2997   18.9815   17.5131 O   0  0  0  0  0  0  0  0  0  0  0  0
    0.3675   18.7848   18.7797 S   0  0  0  0  0  0  0  0  0  0  0  0
    0.4455   19.8447   19.7625 O   0  0  0  0  0  0  0  0  0  0  0  0
   -0.2729   17.3234   19.5740 C   0  0  0  0  0  0  0  0  0  0  0  0
    0.6424   16.1264   19.3584 C   0  0  0  0  0  0  0  0  0  0  0  0
   -0.0614   14.7733   19.3719 C   0  0  0  0  0  0  0  0  0  0  0  0
    0.0923   14.3174   20.8017 C   0  0  0  0  0  0  0  0  0  0  0  0
    1.4611   14.8497   21.1480 C   0  0  0  0  0  0  0  0  0  0  0  0
    1.5847   16.0996   20.4582 O   0  0  0  0  0  0  0  0  0  0  0  0
 17 18  2  0  0  0
 18 19  2  0  0  0
 18 20  1  0  0  0
 20 21  1  0  0  0
 21 22  1  0  0  0
 22 23  1  0  0  0
 23 24  1  0  0  0
 24 25  1  0  0  0
 18 15  1  0  0  0
 15  1  1  0  0  0
  1  2  2  0  0  0
  2  3  1  0  0  0
  3 11  1  0  0  0
 11 12  1  0  0  0
 11 13  1  0  0  0
 11 14  1  0  0  0
  3  4  2  0  0  0
  4  5  1  0  0  0
  5  6  2  0  0  0
  6  7  1  0  0  0
  7  8  1  0  0  0
  8  9  2  0  0  0
 25 21  1  0  0  0
  9  1  1  0  0  0
  8  4  1  0  0  0
 15 16  1  0  0  0
  7 10  1  0  0  0
M  END
> <minimizedAffinity>
-9.99073

$$$$
OCNT-2311783


 26 28  0  0  0  0  0  0  0  0999 V2000
    5.6082   17.5589   21.8537 C   0  0  0  0  0  0  0  0  0  0  0  0
    6.6522   16.9716   22.1066 O   0  0  0  0  0  0  0  0  0  0  0  0
    4.4001   16.9143   21.7413 N   0  0  0  0  0  0  0  0  0  0  0  0
    3.5891   17.4650   21.4871 H   0  0  0  0  0  0  0  0  0  0  0  0
    4.5935   19.7347   20.9765 C   0  0  0  0  0  0  0  0  0  0  0  0
    4.7276   21.1144   20.7590 C   0  0  0  0  0  0  0  0  0  0  0  0
    3.5505   22.0060   19.8628 Cl  0  0  0  0  0  0  0  0  0  0  0  0
    5.8311   21.8074   21.2619 C   0  0  0  0  0  0  0  0  0  0  0  0
    6.8136   21.1298   21.9745 C   0  0  0  0  0  0  0  0  0  0  0  0
    6.7057   19.7517   22.1632 C   0  0  0  0  0  0  0  0  0  0  0  0
    5.6105   19.0377   21.6469 C   0  0  0  0  0  0  0  0  0  0  0  0
    3.6371   18.8650   19.0742 C   0  0  0  0  0  0  0  0  0  0  0  0
    3.4983   19.0684   20.4864 O   0  0  0  0  0  0  0  0  0  0  0  0
    4.2719   15.4667   21.7744 C   0  0  0  0  0  0  0  0  0  0  0  0
    2.8926   15.0004   22.2495 C   0  0  0  0  0  0  0  0  0  0  0  0
    1.7919   15.1361   21.2528 C   0  0  0  0  0  0  0  0  0  0  0  0
    1.6265   16.2895   20.5914 N   0  0  0  0  0  0  0  0  0  0  0  0
    0.5740   16.0159   19.7707 N   0  0  0  0  0  0  0  0  0  0  0  0
    0.0214   14.7881   19.9112 N   0  0  0  0  0  0  0  0  0  0  0  0
    0.8106   14.2281   20.8285 C   0  0  0  0  0  0  0  0  0  0  0  0
    0.0939   16.9515   18.8204 C   0  0  0  0  0  0  0  0  0  0  0  0
   -0.5460   16.5042   17.6557 C   0  0  0  0  0  0  0  0  0  0  0  0
   -1.0103   17.4275   16.7176 C   0  0  0  0  0  0  0  0  0  0  0  0
   -0.8337   18.7961   16.9333 C   0  0  0  0  0  0  0  0  0  0  0  0
   -0.1987   19.2453   18.0909 C   0  0  0  0  0  0  0  0  0  0  0  0
    0.2663   18.3245   19.0365 C   0  0  0  0  0  0  0  0  0  0  0  0
 12 13  1  0  0  0
 13  5  1  0  0  0
  5  6  2  0  0  0
  6  7  1  0  0  0
  6  8  1  0  0  0
  8  9  2  0  0  0
  9 10  1  0  0  0
 10 11  2  0  0  0
 11  1  1  0  0  0
  1  2  2  0  0  0
  1  3  1  0  0  0
  3 14  1  0  0  0
 14 15  1  0  0  0
 15 16  1  0  0  0
 16 17  2  0  0  0
 17 18  1  0  0  0
 18 21  1  0  0  0
 21 22  2  0  0  0
 22 23  1  0  0  0
 23 24  2  0  0  0
 24 25  1  0  0  0
 25 26  2  0  0  0
 18 19  1  0  0  0
 19 20  2  0  0  0
 11  5  1  0  0  0
 20 16  1  0  0  0
 26 21  1  0  0  0
  3  4  1  0  0  0
M  END
> <minimizedAffinity>
-9.59425

$$$$
OCNT-2311790


 30 32  0  0  0  0  0  0  0  0999 V2000
    2.1812   19.2716   19.4833 C   0  0  0  0  0  0  0  0  0  0  0  0
    1.8086   20.4401   19.4909 O   0  0  0  0  0  0  0  0  0  0  0  0
    1.5757   18.2059   18.8484 N   0  0  0  0  0  0  0  0  0  0  0  0
    1.9214   17.2758   19.0577 H   0  0  0  0  0  0  0  0  0  0  0  0
    4.8860   15.7976   21.8654 C   0  0  0  0  0  0  0  0  0  0  0  0
    4.7159   17.2057   21.3768 C   0  0  0  0  0  0  0  0  0  0  0  0
    3.5668   17.5872   20.6843 C   0  0  0  0  0  0  0  0  0  0  0  0
    3.4144   18.9103   20.2402 C   0  0  0  0  0  0  0  0  0  0  0  0
    4.4258   19.8738   20.4579 C   0  0  0  0  0  0  0  0  0  0  0  0
    4.2381   21.2106   20.0422 N   0  0  0  0  0  0  0  0  0  0  0  0
    5.4441   22.0081   19.9194 C   0  0  0  0  0  0  0  0  0  0  0  0
    6.2028   21.9586   21.2315 C   0  0  0  0  0  0  0  0  0  0  0  0
    6.6559   20.5203   21.5197 C   0  0  0  0  0  0  0  0  0  0  0  0
    7.1948   20.4567   22.9546 C   0  0  0  0  0  0  0  0  0  0  0  0
    5.5541   19.5077   21.2268 C   0  0  0  0  0  0  0  0  0  0  0  0
    5.6922   18.1708   21.6518 C   0  0  0  0  0  0  0  0  0  0  0  0
    3.6450   21.2397   19.2033 H   0  0  0  0  0  0  0  0  0  0  0  0
    0.3791   18.1988   18.0939 C   0  0  0  0  0  0  0  0  0  0  0  0
    0.2047   18.9497   16.9290 C   0  0  0  0  0  0  0  0  0  0  0  0
   -1.0297   18.9622   16.2816 C   0  0  0  0  0  0  0  0  0  0  0  0
   -2.0931   18.2310   16.7991 C   0  0  0  0  0  0  0  0  0  0  0  0
   -1.9233   17.4623   17.9542 C   0  0  0  0  0  0  0  0  0  0  0  0
   -0.6842   17.4026   18.6031 C   0  0  0  0  0  0  0  0  0  0  0  0
   -0.4303   16.6118   19.7462 N   0  0  0  0  0  0  0  0  0  0  0  0
    0.1374   17.1689   20.3912 H   0  0  0  0  0  0  0  0  0  0  0  0
    0.1237   15.2425   19.6195 C   0  0  0  0  0  0  0  0  0  0  0  0
    0.7275   14.6517   20.9017 C   0  0  0  0  0  0  0  0  0  0  0  0
   -0.2106   14.3206   21.8126 F   0  0  0  0  0  0  0  0  0  0  0  0
    1.4492   13.5398   20.6234 F   0  0  0  0  0  0  0  0  0  0  0  0
    1.5640   15.5409   21.4859 F   0  0  0  0  0  0  0  0  0  0  0  0
  5  6  1  0  0  0
  6  7  1  0  0  0
  7  8  2  0  0  0
  8  1  1  0  0  0
  1  2  2  0  0  0
  1  3  1  0  0  0
  3 18  1  0  0  0
 18 19  2  0  0  0
 19 20  1  0  0  0
 20 21  2  0  0  0
 21 22  1  0  0  0
 22 23  2  0  0  0
 23 24  1  0  0  0
 24 26  1  0  0  0
 26 27  1  0  0  0
 27 28  1  0  0  0
 27 29  1  0  0  0
 27 30  1  0  0  0
  8  9  1  0  0  0
  9 10  1  0  0  0
 10 11  1  0  0  0
 11 12  1  0  0  0
 12 13  1  0  0  0
 13 14  1  0  0  0
 13 15  1  0  0  0
 15 16  1  0  0  0
 16  6  2  0  0  0
 23 18  1  0  0  0
 15  9  2  0  0  0
  3  4  1  0  0  0
 24 25  1  0  0  0
 10 17  1  0  0  0
M  END
> <minimizedAffinity>
-9.83150

$$$$
OCNT-2311794


 28 31  0  0  0  0  0  0  0  0999 V2000
    1.7946   15.0586   21.3718 C   0  0  0  0  0  0  0  0  0  0  0  0
    2.6364   14.1991   21.6099 O   0  0  0  0  0  0  0  0  0  0  0  0
    1.9852   16.4164   21.2508 N   0  0  0  0  0  0  0  0  0  0  0  0
    1.2108   17.0038   20.9636 H   0  0  0  0  0  0  0  0  0  0  0  0
    3.1595   17.1069   21.3962 C   0  0  0  0  0  0  0  0  0  0  0  0
    4.1688   16.5819   22.0474 N   0  0  0  0  0  0  0  0  0  0  0  0
    5.2278   17.4707   22.0370 C   0  0  0  0  0  0  0  0  0  0  0  0
    5.0187   18.6696   21.3740 C   0  0  0  0  0  0  0  0  0  0  0  0
    3.4126   18.6596   20.7537 S   0  0  0  0  0  0  0  0  0  0  0  0
    5.9210   19.8172   21.1952 C   0  0  0  0  0  0  0  0  0  0  0  0
    5.5386   20.8902   20.3717 C   0  0  0  0  0  0  0  0  0  0  0  0
    6.3754   21.9963   20.1919 C   0  0  0  0  0  0  0  0  0  0  0  0
    7.6089   22.0488   20.8341 C   0  0  0  0  0  0  0  0  0  0  0  0
    8.0056   20.9970   21.6564 C   0  0  0  0  0  0  0  0  0  0  0  0
    7.1682   19.8917   21.8366 C   0  0  0  0  0  0  0  0  0  0  0  0
    0.3515   14.6623   21.1675 C   0  0  0  0  0  0  0  0  0  0  0  0
   -1.0974   12.6533   17.0914 C   0  0  0  0  0  0  0  0  0  0  0  0
   -0.8171   13.9047   17.7729 N   0  0  0  0  0  0  0  0  0  0  0  0
   -0.4080   13.7897   19.0768 N   0  0  0  0  0  0  0  0  0  0  0  0
   -0.0958   14.8633   19.7379 C   0  0  0  0  0  0  0  0  0  0  0  0
   -0.1832   16.2248   19.1695 C   0  0  0  0  0  0  0  0  0  0  0  0
    0.0855   17.3871   19.9039 C   0  0  0  0  0  0  0  0  0  0  0  0
   -0.0064   18.6395   19.2894 C   0  0  0  0  0  0  0  0  0  0  0  0
   -0.3685   18.7384   17.9474 C   0  0  0  0  0  0  0  0  0  0  0  0
   -0.6480   17.5835   17.2179 C   0  0  0  0  0  0  0  0  0  0  0  0
   -0.5582   16.3270   17.8336 C   0  0  0  0  0  0  0  0  0  0  0  0
   -0.8743   15.1050   17.0698 C   0  0  0  0  0  0  0  0  0  0  0  0
   -1.1729   15.1986   15.8817 O   0  0  0  0  0  0  0  0  0  0  0  0
 17 18  1  0  0  0
 18 19  1  0  0  0
 19 20  2  0  0  0
 20 16  1  0  0  0
 16  1  1  0  0  0
  1  2  2  0  0  0
  1  3  1  0  0  0
  3  5  1  0  0  0
  5  6  2  0  0  0
  6  7  1  0  0  0
  7  8  2  0  0  0
  8 10  1  0  0  0
 10 11  2  0  0  0
 11 12  1  0  0  0
 12 13  2  0  0  0
 13 14  1  0  0  0
 14 15  2  0  0  0
  8  9  1  0  0  0
 20 21  1  0  0  0
 21 22  2  0  0  0
 22 23  1  0  0  0
 23 24  2  0  0  0
 24 25  1  0  0  0
 25 26  2  0  0  0
 26 27  1  0  0  0
 27 28  2  0  0  0
 27 18  1  0  0  0
  9  5  1  0  0  0
 26 21  1  0  0  0
 15 10  1  0  0  0
  3  4  1  0  0  0
M  END
> <minimizedAffinity>
-6.79393

$$$$
OCNT-2311797


 25 26  0  0  0  0  0  0  0  0999 V2000
    2.4148   16.7431   20.7226 C   0  0  0  0  0  0  0  0  0  0  0  0
    2.5965   16.0059   21.6839 O   0  0  0  0  0  0  0  0  0  0  0  0
    3.2155   17.7983   20.3233 N   0  0  0  0  0  0  0  0  0  0  0  0
    3.0115   18.2163   19.4252 H   0  0  0  0  0  0  0  0  0  0  0  0
   -0.3581   17.3079   18.2195 C   0  0  0  0  0  0  0  0  0  0  0  0
   -0.9338   16.0312   18.1497 C   0  0  0  0  0  0  0  0  0  0  0  0
   -0.4221   14.9776   18.9094 C   0  0  0  0  0  0  0  0  0  0  0  0
    0.6678   15.1918   19.7533 C   0  0  0  0  0  0  0  0  0  0  0  0
    1.2438   16.4663   19.8406 C   0  0  0  0  0  0  0  0  0  0  0  0
    0.7421   17.5180   19.0584 C   0  0  0  0  0  0  0  0  0  0  0  0
   -0.0943   19.3129   16.8325 N   0  0  0  0  0  0  0  0  0  0  0  0
   -0.9401   18.3840   17.3700 C   0  0  0  0  0  0  0  0  0  0  0  0
   -2.1470   18.4587   17.1734 O   0  0  0  0  0  0  0  0  0  0  0  0
   -0.5265   20.0717   16.3204 H   0  0  0  0  0  0  0  0  0  0  0  0
    0.8757   19.4167   17.0882 H   0  0  0  0  0  0  0  0  0  0  0  0
    4.3552   18.3030   20.9854 C   0  0  0  0  0  0  0  0  0  0  0  0
    5.2181   17.5250   21.7574 C   0  0  0  0  0  0  0  0  0  0  0  0
    6.3223   18.1030   22.3904 C   0  0  0  0  0  0  0  0  0  0  0  0
    6.5748   19.4667   22.2576 C   0  0  0  0  0  0  0  0  0  0  0  0
    5.7255   20.2677   21.4841 C   0  0  0  0  0  0  0  0  0  0  0  0
    4.6127   19.6750   20.8601 C   0  0  0  0  0  0  0  0  0  0  0  0
    5.9733   21.7490   21.3522 C   0  0  0  0  0  0  0  0  0  0  0  0
    7.2866   22.0638   21.1773 F   0  0  0  0  0  0  0  0  0  0  0  0
    5.5634   22.4411   22.4504 F   0  0  0  0  0  0  0  0  0  0  0  0
    5.3145   22.3037   20.2958 F   0  0  0  0  0  0  0  0  0  0  0  0
 11 12  1  0  0  0
 12 13  2  0  0  0
 12  5  1  0  0  0
  5  6  1  0  0  0
  6  7  2  0  0  0
  7  8  1  0  0  0
  8  9  2  0  0  0
  9  1  1  0  0  0
  1  2  2  0  0  0
  1  3  1  0  0  0
  3 16  1  0  0  0
 16 17  1  0  0  0
 17 18  2  0  0  0
 18 19  1  0  0  0
 19 20  2  0  0  0
 20 22  1  0  0  0
 22 23  1  0  0  0
 22 24  1  0  0  0
 22 25  1  0  0  0
 20 21  1  0  0  0
  9 10  1  0  0  0
 10  5  2  0  0  0
 21 16  2  0  0  0
 11 14  1  0  0  0
 11 15  1  0  0  0
  3  4  1  0  0  0
M  END
> <minimizedAffinity>
-11.99915

$$$$
