OCNT-2309634


 32 36  0  0  0  0  0  0  0  0999 V2000
   -0.9011   18.4038   18.1032 N   0  0  0  0  0  0  0  0  0  0  0  0
   -0.3120   17.2981   18.6802 C   0  0  0  0  0  0  0  0  0  0  0  0
   -0.8333   16.1894   18.7631 O   0  0  0  0  0  0  0  0  0  0  0  0
    0.9569   17.5634   19.2176 N   0  0  0  0  0  0  0  0  0  0  0  0
    1.8766   18.4586   18.5133 C   0  0  0  0  0  0  0  0  0  0  0  0
    3.1335   18.7023   19.2884 C   0  0  0  0  0  0  0  0  0  0  0  0
    3.4732   18.0456   20.4097 C   0  0  0  0  0  0  0  0  0  0  0  0
    2.5975   16.9640   20.9793 C   0  0  0  0  0  0  0  0  0  0  0  0
    1.5879   16.4622   19.9462 C   0  0  0  0  0  0  0  0  0  0  0  0
   -0.5958   19.2832   18.4897 H   0  0  0  0  0  0  0  0  0  0  0  0
   -5.1574   16.2975   16.6030 C   0  0  0  0  0  0  0  0  0  0  0  0
   -4.1986   17.4534   16.5433 C   0  0  0  0  0  0  0  0  0  0  0  0
   -4.3940   18.5969   15.7409 C   0  0  0  0  0  0  0  0  0  0  0  0
   -5.3799   19.0528   14.8332 C   0  0  0  0  0  0  0  0  0  0  0  0
   -5.0943   20.2479   14.3102 N   0  0  0  0  0  0  0  0  0  0  0  0
   -3.9219   20.5637   14.8855 N   0  0  0  0  0  0  0  0  0  0  0  0
   -3.4455   19.6128   15.7505 C   0  0  0  0  0  0  0  0  0  0  0  0
   -2.2820   19.5668   16.5268 C   0  0  0  0  0  0  0  0  0  0  0  0
   -2.0859   18.4399   17.3379 C   0  0  0  0  0  0  0  0  0  0  0  0
   -3.0261   17.4047   17.3328 C   0  0  0  0  0  0  0  0  0  0  0  0
   -3.4949   21.4508   14.6451 H   0  0  0  0  0  0  0  0  0  0  0  0
    4.6614   18.3129   21.1511 C   0  0  0  0  0  0  0  0  0  0  0  0
    5.4093   17.3629   21.8206 C   0  0  0  0  0  0  0  0  0  0  0  0
    5.2349   15.8964   21.9746 C   0  0  0  0  0  0  0  0  0  0  0  0
    6.4633   18.0243   22.4061 N   0  0  0  0  0  0  0  0  0  0  0  0
    6.4163   19.3696   22.1200 C   0  0  0  0  0  0  0  0  0  0  0  0
    7.2793   20.4042   22.5020 C   0  0  0  0  0  0  0  0  0  0  0  0
    6.9791   21.6958   22.0579 C   0  0  0  0  0  0  0  0  0  0  0  0
    5.8605   21.9408   21.2646 C   0  0  0  0  0  0  0  0  0  0  0  0
    5.0091   20.8947   20.8915 C   0  0  0  0  0  0  0  0  0  0  0  0
    5.2897   19.5821   21.3259 C   0  0  0  0  0  0  0  0  0  0  0  0
    7.1799   17.5894   22.9702 H   0  0  0  0  0  0  0  0  0  0  0  0
 11 12  1  0  0  0
 12 13  2  0  0  0
 13 14  1  0  0  0
 14 15  2  0  0  0
 15 16  1  0  0  0
 16 17  1  0  0  0
 17 18  2  0  0  0
 18 19  1  0  0  0
 19  1  1  0  0  0
  1  2  1  0  0  0
  2  3  2  0  0  0
  2  4  1  0  0  0
  4  5  1  0  0  0
  5  6  1  0  0  0
  6  7  2  0  0  0
  7 22  1  0  0  0
 22 23  2  0  0  0
 23 24  1  0  0  0
 23 25  1  0  0  0
 25 26  1  0  0  0
 26 27  2  0  0  0
 27 28  1  0  0  0
 28 29  2  0  0  0
 29 30  1  0  0  0
 30 31  2  0  0  0
  7  8  1  0  0  0
  8  9  1  0  0  0
 19 20  2  0  0  0
 20 12  1  0  0  0
 17 13  1  0  0  0
  9  4  1  0  0  0
 31 22  1  0  0  0
 31 26  1  0  0  0
 16 21  1  0  0  0
  1 10  1  0  0  0
 25 32  1  0  0  0
M  END
> <minimizedAffinity>
9.97520

$$$$
OCNT-2309635


 25 29  0  0  0  0  0  0  0  0999 V2000
    1.7447   19.1252   19.8838 O   0  0  0  0  0  0  0  0  0  0  0  0
    2.8462   18.5821   19.8765 C   0  0  0  0  0  0  0  0  0  0  0  0
    3.0719   17.2539   20.1580 N   0  0  0  0  0  0  0  0  0  0  0  0
    3.9954   19.2907   19.5253 N   0  0  0  0  0  0  0  0  0  0  0  0
    3.8158   20.6751   19.0734 C   0  0  0  0  0  0  0  0  0  0  0  0
    3.9033   21.6347   20.2578 C   0  0  0  0  0  0  0  0  0  0  0  0
    5.0723   21.3086   21.0527 N   0  0  0  0  0  0  0  0  0  0  0  0
    5.6970   22.0948   21.9687 C   0  0  0  0  0  0  0  0  0  0  0  0
    6.7225   21.4700   22.5046 N   0  0  0  0  0  0  0  0  0  0  0  0
    6.7472   20.2295   21.9158 C   0  0  0  0  0  0  0  0  0  0  0  0
    5.7260   20.1011   20.9998 C   0  0  0  0  0  0  0  0  0  0  0  0
    5.3201   18.9988   20.0850 C   0  0  0  0  0  0  0  0  0  0  0  0
    3.9050   16.8669   19.7421 H   0  0  0  0  0  0  0  0  0  0  0  0
    2.1517   16.3222   20.6838 C   0  0  0  0  0  0  0  0  0  0  0  0
    1.2059   15.7963   19.7990 C   0  0  0  0  0  0  0  0  0  0  0  0
    0.2603   14.8548   20.2255 C   0  0  0  0  0  0  0  0  0  0  0  0
    0.2612   14.4209   21.5641 C   0  0  0  0  0  0  0  0  0  0  0  0
   -0.6101   13.4996   22.1186 N   0  0  0  0  0  0  0  0  0  0  0  0
   -0.3171   13.3377   23.3868 C   0  0  0  0  0  0  0  0  0  0  0  0
    0.9993   14.2397   23.9928 S   0  0  0  0  0  0  0  0  0  0  0  0
    1.2181   14.9451   22.4346 C   0  0  0  0  0  0  0  0  0  0  0  0
    2.1727   15.8916   22.0157 C   0  0  0  0  0  0  0  0  0  0  0  0
   -1.1264   12.3502   24.2890 C   0  0  0  0  0  0  0  0  0  0  0  0
   -2.1541   11.4484   23.6536 C   0  0  0  0  0  0  0  0  0  0  0  0
   -2.5969   12.5963   24.5127 C   0  0  0  0  0  0  0  0  0  0  0  0
  1  2  2  0  0  0
  2  3  1  0  0  0
  3 14  1  0  0  0
 14 15  2  0  0  0
 15 16  1  0  0  0
 16 17  2  0  0  0
 17 18  1  0  0  0
 18 19  2  0  0  0
 19 23  1  0  0  0
 23 24  1  0  0  0
 24 25  1  0  0  0
 19 20  1  0  0  0
 20 21  1  0  0  0
 21 22  2  0  0  0
  2  4  1  0  0  0
  4  5  1  0  0  0
  5  6  1  0  0  0
  6  7  1  0  0  0
  7  8  1  0  0  0
  8  9  2  0  0  0
  9 10  1  0  0  0
 10 11  2  0  0  0
 11 12  1  0  0  0
 22 14  1  0  0  0
 12  4  1  0  0  0
 21 17  1  0  0  0
 11  7  1  0  0  0
 25 23  1  0  0  0
  3 13  1  0  0  0
M  END
> <minimizedAffinity>
-3.41802

$$$$
OCNT-2309641


 30 33  0  0  0  0  0  0  0  0999 V2000
    0.1002   20.1145   19.1252 C   0  0  0  0  0  0  0  0  0  0  0  0
    1.4909   19.6316   19.3182 C   0  0  0  0  0  0  0  0  0  0  0  0
    2.4151   20.4650   19.8007 N   0  0  0  0  0  0  0  0  0  0  0  0
    3.5151   19.6950   19.9988 N   0  0  0  0  0  0  0  0  0  0  0  0
    3.3800   18.4693   19.3596 C   0  0  0  0  0  0  0  0  0  0  0  0
    4.4982   17.5357   19.0547 C   0  0  0  0  0  0  0  0  0  0  0  0
    2.0388   18.3596   19.0131 C   0  0  0  0  0  0  0  0  0  0  0  0
    4.6270   20.2585   20.6798 C   0  0  0  0  0  0  0  0  0  0  0  0
    5.1614   21.4551   20.1624 C   0  0  0  0  0  0  0  0  0  0  0  0
    6.2783   22.0486   20.7528 C   0  0  0  0  0  0  0  0  0  0  0  0
    6.8519   21.4653   21.8770 C   0  0  0  0  0  0  0  0  0  0  0  0
    8.2293   22.1921   22.6075 Cl  0  0  0  0  0  0  0  0  0  0  0  0
    6.3037   20.3104   22.4307 C   0  0  0  0  0  0  0  0  0  0  0  0
    5.1800   19.7105   21.8456 C   0  0  0  0  0  0  0  0  0  0  0  0
    4.4617   18.4204   22.7461 Cl  0  0  0  0  0  0  0  0  0  0  0  0
    1.3460   17.1988   18.3627 C   0  0  0  0  0  0  0  0  0  0  0  0
    0.2340   16.5898   19.2011 C   0  0  0  0  0  0  0  0  0  0  0  0
   -0.9563   16.8049   18.9437 O   0  0  0  0  0  0  0  0  0  0  0  0
    0.5687   15.7636   20.2615 N   0  0  0  0  0  0  0  0  0  0  0  0
   -0.5140   15.1445   21.0401 C   0  0  0  0  0  0  0  0  0  0  0  0
    0.1166   14.1188   21.9890 C   0  0  0  0  0  0  0  0  0  0  0  0
    1.5723   14.4947   21.8889 C   0  0  0  0  0  0  0  0  0  0  0  0
    2.6174   13.9851   22.6515 C   0  0  0  0  0  0  0  0  0  0  0  0
    3.9124   14.4197   22.3842 C   0  0  0  0  0  0  0  0  0  0  0  0
    4.1450   15.3467   21.3633 C   0  0  0  0  0  0  0  0  0  0  0  0
    3.0872   15.8508   20.5951 C   0  0  0  0  0  0  0  0  0  0  0  0
    1.7970   15.4178   20.8576 C   0  0  0  0  0  0  0  0  0  0  0  0
   -0.4790   14.2051   23.3923 C   0  0  0  0  0  0  0  0  0  0  0  0
   -1.2221   13.0307   23.7105 O   0  0  0  0  0  0  0  0  0  0  0  0
   -1.9689   12.9739   23.0897 H   0  0  0  0  0  0  0  0  0  0  0  0
  1  2  1  0  0  0
  2  3  2  0  0  0
  3  4  1  0  0  0
  4  8  1  0  0  0
  8  9  1  0  0  0
  9 10  2  0  0  0
 10 11  1  0  0  0
 11 12  1  0  0  0
 11 13  2  0  0  0
 13 14  1  0  0  0
 14 15  1  0  0  0
  4  5  1  0  0  0
  5  6  1  0  0  0
  5  7  2  0  0  0
  7 16  1  0  0  0
 16 17  1  0  0  0
 17 18  2  0  0  0
 17 19  1  0  0  0
 19 20  1  0  0  0
 20 21  1  0  0  0
 21 28  1  0  0  0
 28 29  1  0  0  0
 21 22  1  0  0  0
 22 23  2  0  0  0
 23 24  1  0  0  0
 24 25  2  0  0  0
 25 26  1  0  0  0
 26 27  2  0  0  0
  7  2  1  0  0  0
 27 19  1  0  0  0
 14  8  2  0  0  0
 27 22  1  0  0  0
 29 30  1  0  0  0
M  END
> <minimizedAffinity>
-1.22011

$$$$
OCNT-2309655


 29 31  0  0  0  0  0  0  0  0999 V2000
    3.6986   16.0860   22.4643 N   0  0  0  0  0  0  0  0  0  0  0  0
    4.9151   16.3655   21.9005 C   0  0  0  0  0  0  0  0  0  0  0  0
    5.4126   15.6424   21.0398 O   0  0  0  0  0  0  0  0  0  0  0  0
    5.5245   17.5263   22.3565 N   0  0  0  0  0  0  0  0  0  0  0  0
    6.8338   17.8476   21.8124 C   0  0  0  0  0  0  0  0  0  0  0  0
    3.5867   16.3708   23.4239 H   0  0  0  0  0  0  0  0  0  0  0  0
    2.9809   14.8804   22.1070 C   0  0  0  0  0  0  0  0  0  0  0  0
    0.6226   16.1240   19.6203 N   0  0  0  0  0  0  0  0  0  0  0  0
    1.7233   16.3729   20.4036 C   0  0  0  0  0  0  0  0  0  0  0  0
    1.9254   15.2130   21.1187 C   0  0  0  0  0  0  0  0  0  0  0  0
    0.9685   14.3026   20.7683 N   0  0  0  0  0  0  0  0  0  0  0  0
    0.1794   14.8633   19.8620 N   0  0  0  0  0  0  0  0  0  0  0  0
   -1.3180   18.6607   16.8422 C   0  0  0  0  0  0  0  0  0  0  0  0
    0.0139   18.8907   17.1859 C   0  0  0  0  0  0  0  0  0  0  0  0
    0.6648   18.0552   18.1047 C   0  0  0  0  0  0  0  0  0  0  0  0
   -0.0179   16.9788   18.6866 C   0  0  0  0  0  0  0  0  0  0  0  0
   -1.3553   16.7472   18.3391 C   0  0  0  0  0  0  0  0  0  0  0  0
   -1.9955   17.5861   17.4224 C   0  0  0  0  0  0  0  0  0  0  0  0
   -3.4754   19.3411   16.1102 C   0  0  0  0  0  0  0  0  0  0  0  0
   -2.0621   19.3982   15.9640 O   0  0  0  0  0  0  0  0  0  0  0  0
    4.8547   18.5761   23.1396 C   0  0  0  0  0  0  0  0  0  0  0  0
    4.4021   19.7882   22.3143 C   0  0  0  0  0  0  0  0  0  0  0  0
    5.1903   20.0180   21.0043 C   0  0  0  0  0  0  0  0  0  0  0  0
    4.3589   19.5569   19.7908 C   0  0  0  0  0  0  0  0  0  0  0  0
    3.1350   20.4341   19.5384 C   0  0  0  0  0  0  0  0  0  0  0  0
    3.4171   21.9097   19.8080 C   0  0  0  0  0  0  0  0  0  0  0  0
    4.9138   22.2021   19.8552 C   0  0  0  0  0  0  0  0  0  0  0  0
    5.5936   21.4398   20.9149 N   0  0  0  0  0  0  0  0  0  0  0  0
    7.0432   21.5882   20.7743 C   0  0  0  0  0  0  0  0  0  0  0  0
 19 20  1  0  0  0
 20 13  1  0  0  0
 13 14  1  0  0  0
 14 15  2  0  0  0
 15 16  1  0  0  0
 16  8  1  0  0  0
  8  9  1  0  0  0
  9 10  2  0  0  0
 10  7  1  0  0  0
  7  1  1  0  0  0
  1  2  1  0  0  0
  2  3  2  0  0  0
  2  4  1  0  0  0
  4  5  1  0  0  0
  4 21  1  0  0  0
 21 22  1  0  0  0
 22 23  1  0  0  0
 23 24  1  0  0  0
 24 25  1  0  0  0
 25 26  1  0  0  0
 26 27  1  0  0  0
 27 28  1  0  0  0
 28 29  1  0  0  0
 10 11  1  0  0  0
 11 12  2  0  0  0
 16 17  2  0  0  0
 17 18  1  0  0  0
 18 13  2  0  0  0
 12  8  1  0  0  0
 28 23  1  0  0  0
  1  6  1  0  0  0
M  END
> <minimizedAffinity>
-5.30944

$$$$
OCNT-2309658


 30 34  0  0  0  0  0  0  0  0999 V2000
    2.4674   19.7375   19.5363 C   0  0  0  0  0  0  0  0  0  0  0  0
    1.3611   20.2076   18.9455 N   0  0  0  0  0  0  0  0  0  0  0  0
    0.5676   19.0707   18.7942 O   0  0  0  0  0  0  0  0  0  0  0  0
    1.2798   18.0261   19.3119 C   0  0  0  0  0  0  0  0  0  0  0  0
    2.4550   18.3888   19.7802 N   0  0  0  0  0  0  0  0  0  0  0  0
    6.7960   17.8827   22.6884 C   0  0  0  0  0  0  0  0  0  0  0  0
    6.3040   19.1051   21.9795 C   0  0  0  0  0  0  0  0  0  0  0  0
    5.1470   19.1559   21.2912 C   0  0  0  0  0  0  0  0  0  0  0  0
    4.7642   20.3412   20.6586 N   0  0  0  0  0  0  0  0  0  0  0  0
    3.6542   20.6505   19.9079 C   0  0  0  0  0  0  0  0  0  0  0  0
    3.8075   21.9686   19.5400 C   0  0  0  0  0  0  0  0  0  0  0  0
    4.9743   22.4909   20.0354 N   0  0  0  0  0  0  0  0  0  0  0  0
    5.5353   21.5041   20.7025 C   0  0  0  0  0  0  0  0  0  0  0  0
    6.7574   21.4515   21.4291 C   0  0  0  0  0  0  0  0  0  0  0  0
    7.1279   20.3099   22.0395 C   0  0  0  0  0  0  0  0  0  0  0  0
    0.6614   16.7050   19.2748 C   0  0  0  0  0  0  0  0  0  0  0  0
    0.1420   16.2255   18.0630 C   0  0  0  0  0  0  0  0  0  0  0  0
   -0.4537   14.9673   17.9923 C   0  0  0  0  0  0  0  0  0  0  0  0
   -0.5374   14.1737   19.1356 C   0  0  0  0  0  0  0  0  0  0  0  0
   -0.0296   14.6287   20.3574 C   0  0  0  0  0  0  0  0  0  0  0  0
    0.5687   15.8915   20.4183 C   0  0  0  0  0  0  0  0  0  0  0  0
   -0.1534   13.7656   21.4600 N   0  0  0  0  0  0  0  0  0  0  0  0
   -0.4782   14.0803   22.7697 C   0  0  0  0  0  0  0  0  0  0  0  0
   -0.7157   15.1980   23.2145 O   0  0  0  0  0  0  0  0  0  0  0  0
   -0.0600   12.7661   21.2902 H   0  0  0  0  0  0  0  0  0  0  0  0
   -0.4526   12.8248   23.6672 C   0  0  0  0  0  0  0  0  0  0  0  0
   -1.1038   13.0528   25.0209 C   0  0  0  0  0  0  0  0  0  0  0  0
   -2.5243   12.6116   24.7677 C   0  0  0  0  0  0  0  0  0  0  0  0
   -2.3277   11.4444   23.8271 C   0  0  0  0  0  0  0  0  0  0  0  0
   -1.1636   11.7373   23.0391 O   0  0  0  0  0  0  0  0  0  0  0  0
  6  7  1  0  0  0
  7  8  2  0  0  0
  8  9  1  0  0  0
  9 10  1  0  0  0
 10  1  1  0  0  0
  1  2  2  0  0  0
  2  3  1  0  0  0
  3  4  1  0  0  0
  4 16  1  0  0  0
 16 17  1  0  0  0
 17 18  2  0  0  0
 18 19  1  0  0  0
 19 20  2  0  0  0
 20 22  1  0  0  0
 22 23  1  0  0  0
 23 24  2  0  0  0
 23 26  1  0  0  0
 26 27  1  0  0  0
 27 28  1  0  0  0
 28 29  1  0  0  0
 29 30  1  0  0  0
 20 21  1  0  0  0
  4  5  2  0  0  0
 10 11  2  0  0  0
 11 12  1  0  0  0
 12 13  2  0  0  0
 13 14  1  0  0  0
 14 15  2  0  0  0
 15  7  1  0  0  0
 13  9  1  0  0  0
  5  1  1  0  0  0
 21 16  2  0  0  0
 30 26  1  0  0  0
 22 25  1  0  0  0
M  END
> <minimizedAffinity>
-4.49481

$$$$
OCNT-2309659


 26 29  0  0  0  0  0  0  0  0999 V2000
    0.3997   16.2573   19.3523 C   0  0  0  0  0  0  0  0  0  0  0  0
   -0.3416   15.1389   19.2783 N   0  0  0  0  0  0  0  0  0  0  0  0
    0.0061   14.1427   20.1064 C   0  0  0  0  0  0  0  0  0  0  0  0
    1.0460   14.2260   21.0022 C   0  0  0  0  0  0  0  0  0  0  0  0
    1.7473   15.4103   21.0263 C   0  0  0  0  0  0  0  0  0  0  0  0
    1.4381   16.4232   20.1955 N   0  0  0  0  0  0  0  0  0  0  0  0
   -3.1705   18.7373   16.4736 Cl  0  0  0  0  0  0  0  0  0  0  0  0
   -1.5675   18.5866   17.0830 C   0  0  0  0  0  0  0  0  0  0  0  0
   -0.6034   19.5223   16.7214 C   0  0  0  0  0  0  0  0  0  0  0  0
    0.6915   19.3978   17.2158 C   0  0  0  0  0  0  0  0  0  0  0  0
    1.0136   18.3371   18.0692 C   0  0  0  0  0  0  0  0  0  0  0  0
    0.0553   17.3758   18.4507 C   0  0  0  0  0  0  0  0  0  0  0  0
   -1.2468   17.5277   17.9349 C   0  0  0  0  0  0  0  0  0  0  0  0
    2.8320   15.6633   21.8711 N   0  0  0  0  0  0  0  0  0  0  0  0
    2.7861   14.9726   22.6177 H   0  0  0  0  0  0  0  0  0  0  0  0
    3.8880   16.5005   21.8291 C   0  0  0  0  0  0  0  0  0  0  0  0
    3.7943   17.8179   21.4595 C   0  0  0  0  0  0  0  0  0  0  0  0
    5.0611   18.3575   21.5467 N   0  0  0  0  0  0  0  0  0  0  0  0
    5.9671   17.4359   21.9807 N   0  0  0  0  0  0  0  0  0  0  0  0
    5.2428   16.3272   22.1605 C   0  0  0  0  0  0  0  0  0  0  0  0
    5.4220   19.7037   21.2374 C   0  0  0  0  0  0  0  0  0  0  0  0
    6.6447   20.1990   21.6878 C   0  0  0  0  0  0  0  0  0  0  0  0
    6.9852   21.5140   21.3794 C   0  0  0  0  0  0  0  0  0  0  0  0
    6.1045   22.2920   20.6368 C   0  0  0  0  0  0  0  0  0  0  0  0
    4.9101   21.7229   20.2283 C   0  0  0  0  0  0  0  0  0  0  0  0
    4.5470   20.4523   20.5088 N   0  0  0  0  0  0  0  0  0  0  0  0
  7  8  1  0  0  0
  8  9  1  0  0  0
  9 10  2  0  0  0
 10 11  1  0  0  0
 11 12  2  0  0  0
 12  1  1  0  0  0
  1  2  2  0  0  0
  2  3  1  0  0  0
  3  4  2  0  0  0
  4  5  1  0  0  0
  5 14  1  0  0  0
 14 16  1  0  0  0
 16 17  2  0  0  0
 17 18  1  0  0  0
 18 21  1  0  0  0
 21 22  2  0  0  0
 22 23  1  0  0  0
 23 24  2  0  0  0
 24 25  1  0  0  0
 25 26  2  0  0  0
 18 19  1  0  0  0
 19 20  2  0  0  0
  5  6  2  0  0  0
 12 13  1  0  0  0
 13  8  2  0  0  0
  6  1  1  0  0  0
 20 16  1  0  0  0
 26 21  1  0  0  0
 14 15  1  0  0  0
M  END
> <minimizedAffinity>
-9.26815

$$$$
OCNT-2309661


 26 28  0  0  0  0  0  0  0  0999 V2000
    1.0531   14.4857   20.7775 N   0  0  0  0  0  0  0  0  0  0  0  0
    0.9066   14.3914   22.1443 C   0  0  0  0  0  0  0  0  0  0  0  0
   -0.1447   14.0347   22.6781 O   0  0  0  0  0  0  0  0  0  0  0  0
    1.9620   14.7292   20.3986 H   0  0  0  0  0  0  0  0  0  0  0  0
   -0.0175   14.1889   19.8576 C   0  0  0  0  0  0  0  0  0  0  0  0
   -0.0411   17.6823   18.3238 C   0  0  0  0  0  0  0  0  0  0  0  0
   -0.5793   17.4236   17.0593 C   0  0  0  0  0  0  0  0  0  0  0  0
   -0.9274   16.1201   16.6986 C   0  0  0  0  0  0  0  0  0  0  0  0
   -0.7388   15.0714   17.5994 C   0  0  0  0  0  0  0  0  0  0  0  0
   -0.1909   15.3138   18.8695 C   0  0  0  0  0  0  0  0  0  0  0  0
    0.1498   16.6294   19.2264 C   0  0  0  0  0  0  0  0  0  0  0  0
    0.5962   20.1091   18.9977 N   0  0  0  0  0  0  0  0  0  0  0  0
    0.3074   19.0233   18.6966 C   0  0  0  0  0  0  0  0  0  0  0  0
    2.1542   14.6760   22.9699 C   0  0  0  0  0  0  0  0  0  0  0  0
    3.6912   14.6912   21.9998 S   0  0  0  0  0  0  0  0  0  0  0  0
    3.7097   16.3458   21.4610 C   0  0  0  0  0  0  0  0  0  0  0  0
    2.6917   16.9003   20.8333 N   0  0  0  0  0  0  0  0  0  0  0  0
    3.0923   18.1988   20.6377 C   0  0  0  0  0  0  0  0  0  0  0  0
    4.3499   18.3955   21.1639 C   0  0  0  0  0  0  0  0  0  0  0  0
    4.7600   17.1930   21.6790 O   0  0  0  0  0  0  0  0  0  0  0  0
    5.2725   19.5155   21.2785 C   0  0  0  0  0  0  0  0  0  0  0  0
    5.0295   20.7111   20.5833 C   0  0  0  0  0  0  0  0  0  0  0  0
    5.9175   21.7883   20.6769 C   0  0  0  0  0  0  0  0  0  0  0  0
    7.0610   21.6853   21.4671 C   0  0  0  0  0  0  0  0  0  0  0  0
    7.3121   20.5099   22.1706 C   0  0  0  0  0  0  0  0  0  0  0  0
    6.4240   19.4337   22.0795 C   0  0  0  0  0  0  0  0  0  0  0  0
 12 13  3  0  0  0
 13  6  1  0  0  0
  6  7  1  0  0  0
  7  8  2  0  0  0
  8  9  1  0  0  0
  9 10  2  0  0  0
 10  5  1  0  0  0
  5  1  1  0  0  0
  1  2  1  0  0  0
  2  3  2  0  0  0
  2 14  1  0  0  0
 14 15  1  0  0  0
 15 16  1  0  0  0
 16 17  2  0  0  0
 17 18  1  0  0  0
 18 19  2  0  0  0
 19 21  1  0  0  0
 21 22  2  0  0  0
 22 23  1  0  0  0
 23 24  2  0  0  0
 24 25  1  0  0  0
 25 26  2  0  0  0
 19 20  1  0  0  0
 10 11  1  0  0  0
 11  6  2  0  0  0
 20 16  1  0  0  0
 26 21  1  0  0  0
  1  4  1  0  0  0
M  END
> <minimizedAffinity>
-9.77946

$$$$
OCNT-2309664


 27 30  0  0  0  0  0  0  0  0999 V2000
    4.6751   15.2341   21.6984 O   0  0  0  0  0  0  0  0  0  0  0  0
    4.0825   16.3060   21.6393 C   0  0  0  0  0  0  0  0  0  0  0  0
    2.7134   16.3911   21.5382 N   0  0  0  0  0  0  0  0  0  0  0  0
    2.2770   17.1924   21.9758 H   0  0  0  0  0  0  0  0  0  0  0  0
    4.7406   17.5915   21.6868 C   0  0  0  0  0  0  0  0  0  0  0  0
    5.9721   17.9095   22.2303 C   0  0  0  0  0  0  0  0  0  0  0  0
    6.2325   19.2849   21.9714 C   0  0  0  0  0  0  0  0  0  0  0  0
    7.3053   20.1463   22.2628 C   0  0  0  0  0  0  0  0  0  0  0  0
    7.2437   21.4647   21.8092 C   0  0  0  0  0  0  0  0  0  0  0  0
    8.2623   22.2936   22.0767 F   0  0  0  0  0  0  0  0  0  0  0  0
    6.1577   21.9412   21.0846 C   0  0  0  0  0  0  0  0  0  0  0  0
    5.0805   21.1043   20.7883 C   0  0  0  0  0  0  0  0  0  0  0  0
    5.1461   19.7829   21.2500 C   0  0  0  0  0  0  0  0  0  0  0  0
    4.2600   18.7435   21.1051 N   0  0  0  0  0  0  0  0  0  0  0  0
    3.4047   18.7936   20.5819 H   0  0  0  0  0  0  0  0  0  0  0  0
    1.9276   15.1793   21.5968 C   0  0  0  0  0  0  0  0  0  0  0  0
    0.9625   15.1859   20.4589 C   0  0  0  0  0  0  0  0  0  0  0  0
    0.7687   16.3074   19.7379 N   0  0  0  0  0  0  0  0  0  0  0  0
   -0.1870   15.9735   18.8248 N   0  0  0  0  0  0  0  0  0  0  0  0
   -0.5313   14.6393   18.9316 C   0  0  0  0  0  0  0  0  0  0  0  0
    0.1896   14.1167   19.9768 C   0  0  0  0  0  0  0  0  0  0  0  0
   -0.7095   16.9476   17.9257 C   0  0  0  0  0  0  0  0  0  0  0  0
    0.1608   17.6294   17.0609 C   0  0  0  0  0  0  0  0  0  0  0  0
   -0.3362   18.5968   16.1833 C   0  0  0  0  0  0  0  0  0  0  0  0
   -1.6969   18.9065   16.1768 C   0  0  0  0  0  0  0  0  0  0  0  0
   -2.5613   18.2417   17.0353 C   0  0  0  0  0  0  0  0  0  0  0  0
   -2.0750   17.2542   17.8998 C   0  0  0  0  0  0  0  0  0  0  0  0
  1  2  2  0  0  0
  2  3  1  0  0  0
  3 16  1  0  0  0
 16 17  1  0  0  0
 17 18  2  0  0  0
 18 19  1  0  0  0
 19 22  1  0  0  0
 22 23  2  0  0  0
 23 24  1  0  0  0
 24 25  2  0  0  0
 25 26  1  0  0  0
 26 27  2  0  0  0
 19 20  1  0  0  0
 20 21  2  0  0  0
  2  5  1  0  0  0
  5  6  2  0  0  0
  6  7  1  0  0  0
  7  8  2  0  0  0
  8  9  1  0  0  0
  9 10  1  0  0  0
  9 11  2  0  0  0
 11 12  1  0  0  0
 12 13  2  0  0  0
 13 14  1  0  0  0
 21 17  1  0  0  0
 14  5  1  0  0  0
 27 22  1  0  0  0
 13  7  1  0  0  0
  3  4  1  0  0  0
 14 15  1  0  0  0
M  END
> <minimizedAffinity>
-8.56510

$$$$
OCNT-2309665


 26 29  0  0  0  0  0  0  0  0999 V2000
    2.8448   17.0290   22.0640 N   0  0  0  0  0  0  0  0  0  0  0  0
    2.9736   15.6654   21.9389 C   0  0  0  0  0  0  0  0  0  0  0  0
    4.0204   15.0718   21.7123 O   0  0  0  0  0  0  0  0  0  0  0  0
    1.9710   17.4318   22.3596 H   0  0  0  0  0  0  0  0  0  0  0  0
    7.9169   22.2010   20.0722 C   0  0  0  0  0  0  0  0  0  0  0  0
    7.1746   21.0813   20.7456 C   0  0  0  0  0  0  0  0  0  0  0  0
    7.6959   20.4911   21.8999 C   0  0  0  0  0  0  0  0  0  0  0  0
    7.0035   19.4700   22.5609 C   0  0  0  0  0  0  0  0  0  0  0  0
    5.7607   19.0311   22.0660 C   0  0  0  0  0  0  0  0  0  0  0  0
    4.9697   18.0381   22.6186 N   0  0  0  0  0  0  0  0  0  0  0  0
    3.8907   17.8916   21.8986 C   0  0  0  0  0  0  0  0  0  0  0  0
    3.7336   18.9024   20.5340 S   0  0  0  0  0  0  0  0  0  0  0  0
    5.2475   19.6338   20.9152 C   0  0  0  0  0  0  0  0  0  0  0  0
    5.9305   20.6638   20.2455 C   0  0  0  0  0  0  0  0  0  0  0  0
    1.7124   14.9554   22.1441 C   0  0  0  0  0  0  0  0  0  0  0  0
    1.1422   14.5263   23.3401 C   0  0  0  0  0  0  0  0  0  0  0  0
   -0.0803   13.8793   23.0557 C   0  0  0  0  0  0  0  0  0  0  0  0
   -0.2476   13.9210   21.6946 C   0  0  0  0  0  0  0  0  0  0  0  0
    0.8177   14.6007   21.1437 N   0  0  0  0  0  0  0  0  0  0  0  0
    0.9794   14.7839   19.7006 C   0  0  0  0  0  0  0  0  0  0  0  0
    0.3107   16.0437   19.2124 C   0  0  0  0  0  0  0  0  0  0  0  0
    0.6887   17.2952   19.7111 C   0  0  0  0  0  0  0  0  0  0  0  0
    0.0479   18.4277   19.2308 C   0  0  0  0  0  0  0  0  0  0  0  0
   -0.9274   18.4017   18.2995 N   0  0  0  0  0  0  0  0  0  0  0  0
   -1.2788   17.1860   17.8288 C   0  0  0  0  0  0  0  0  0  0  0  0
   -0.7001   15.9979   18.2479 C   0  0  0  0  0  0  0  0  0  0  0  0
  5  6  1  0  0  0
  6  7  2  0  0  0
  7  8  1  0  0  0
  8  9  2  0  0  0
  9 10  1  0  0  0
 10 11  2  0  0  0
 11  1  1  0  0  0
  1  2  1  0  0  0
  2  3  2  0  0  0
  2 15  1  0  0  0
 15 16  2  0  0  0
 16 17  1  0  0  0
 17 18  2  0  0  0
 18 19  1  0  0  0
 19 20  1  0  0  0
 20 21  1  0  0  0
 21 22  2  0  0  0
 22 23  1  0  0  0
 23 24  2  0  0  0
 24 25  1  0  0  0
 25 26  2  0  0  0
 11 12  1  0  0  0
 12 13  1  0  0  0
 13 14  2  0  0  0
 14  6  1  0  0  0
 13  9  1  0  0  0
 19 15  1  0  0  0
 26 21  1  0  0  0
  1  4  1  0  0  0
M  END
> <minimizedAffinity>
-7.45571

$$$$
OCNT-2309684


 25 29  0  0  0  0  0  0  0  0999 V2000
    2.0276   18.0453   19.8716 C   0  0  0  0  0  0  0  0  0  0  0  0
    2.4610   16.9632   20.5381 N   0  0  0  0  0  0  0  0  0  0  0  0
    3.6196   17.4018   21.1702 O   0  0  0  0  0  0  0  0  0  0  0  0
    3.7872   18.7102   20.8194 C   0  0  0  0  0  0  0  0  0  0  0  0
    2.8298   19.1549   20.0352 N   0  0  0  0  0  0  0  0  0  0  0  0
    4.9662   19.4482   21.3898 C   0  0  0  0  0  0  0  0  0  0  0  0
    4.4721   20.5524   22.3755 C   0  0  0  0  0  0  0  0  0  0  0  0
    5.0362   21.9383   22.0516 C   0  0  0  0  0  0  0  0  0  0  0  0
    6.5379   21.9090   21.7523 C   0  0  0  0  0  0  0  0  0  0  0  0
    6.9658   20.8255   20.8495 N   0  0  0  0  0  0  0  0  0  0  0  0
    7.8688   19.8727   21.5187 C   0  0  0  0  0  0  0  0  0  0  0  0
    7.1866   19.0429   22.6118 C   0  0  0  0  0  0  0  0  0  0  0  0
    5.8706   18.4247   22.1300 C   0  0  0  0  0  0  0  0  0  0  0  0
    5.8200   20.0995   20.2749 C   0  0  0  0  0  0  0  0  0  0  0  0
   -0.0520   16.9863   19.0169 C   0  0  0  0  0  0  0  0  0  0  0  0
   -1.1938   17.0464   18.2183 C   0  0  0  0  0  0  0  0  0  0  0  0
   -1.4244   18.1936   17.4756 C   0  0  0  0  0  0  0  0  0  0  0  0
   -0.5907   19.2533   17.4695 N   0  0  0  0  0  0  0  0  0  0  0  0
    0.5126   19.1675   18.2558 C   0  0  0  0  0  0  0  0  0  0  0  0
    0.8317   18.0687   19.0478 C   0  0  0  0  0  0  0  0  0  0  0  0
   -2.5606   18.1909   16.6955 O   0  0  0  0  0  0  0  0  0  0  0  0
   -2.7834   19.3820   15.9382 C   0  0  0  0  0  0  0  0  0  0  0  0
   -4.2559   19.6426   15.8193 C   0  0  0  0  0  0  0  0  0  0  0  0
   -4.9499   19.4843   14.4896 C   0  0  0  0  0  0  0  0  0  0  0  0
   -4.7760   20.8531   15.0866 C   0  0  0  0  0  0  0  0  0  0  0  0
 15 16  1  0  0  0
 16 17  2  0  0  0
 17 21  1  0  0  0
 21 22  1  0  0  0
 22 23  1  0  0  0
 23 24  1  0  0  0
 24 25  1  0  0  0
 17 18  1  0  0  0
 18 19  2  0  0  0
 19 20  1  0  0  0
 20  1  1  0  0  0
  1  2  2  0  0  0
  2  3  1  0  0  0
  3  4  1  0  0  0
  4  6  1  0  0  0
  6  7  1  0  0  0
  7  8  1  0  0  0
  8  9  1  0  0  0
  9 10  1  0  0  0
 10 11  1  0  0  0
 11 12  1  0  0  0
 12 13  1  0  0  0
 10 14  1  0  0  0
  4  5  2  0  0  0
 20 15  2  0  0  0
  5  1  1  0  0  0
 25 23  1  0  0  0
 13  6  1  0  0  0
 14  6  1  0  0  0
M  END
> <minimizedAffinity>
-4.28300

$$$$
OCNT-2309695


 33 37  0  0  0  0  0  0  0  0999 V2000
    0.2871   14.7717   20.1439 C   0  0  0  0  0  0  0  0  0  0  0  0
    1.5440   15.3569   20.2806 C   0  0  0  0  0  0  0  0  0  0  0  0
    2.1254   15.4465   21.5498 C   0  0  0  0  0  0  0  0  0  0  0  0
    1.4362   14.8868   22.6343 C   0  0  0  0  0  0  0  0  0  0  0  0
    1.6293   14.6665   24.0145 C   0  0  0  0  0  0  0  0  0  0  0  0
    0.5818   14.0814   24.6005 N   0  0  0  0  0  0  0  0  0  0  0  0
   -0.2766   13.8618   23.5734 N   0  0  0  0  0  0  0  0  0  0  0  0
    0.1947   14.3267   22.3708 C   0  0  0  0  0  0  0  0  0  0  0  0
   -0.4212   14.2508   21.1760 N   0  0  0  0  0  0  0  0  0  0  0  0
   -0.4112   17.1841   18.4691 C   0  0  0  0  0  0  0  0  0  0  0  0
   -0.6854   15.7722   18.0231 C   0  0  0  0  0  0  0  0  0  0  0  0
   -1.2656   15.5711   16.7575 C   0  0  0  0  0  0  0  0  0  0  0  0
   -1.5561   14.2874   16.2980 C   0  0  0  0  0  0  0  0  0  0  0  0
   -1.2703   13.1856   17.0944 C   0  0  0  0  0  0  0  0  0  0  0  0
   -0.6812   13.3686   18.3457 C   0  0  0  0  0  0  0  0  0  0  0  0
   -0.3629   14.6540   18.8274 C   0  0  0  0  0  0  0  0  0  0  0  0
    3.4413   16.1004   21.6961 C   0  0  0  0  0  0  0  0  0  0  0  0
    4.4038   15.3883   21.9441 O   0  0  0  0  0  0  0  0  0  0  0  0
    3.4394   17.4604   21.4693 N   0  0  0  0  0  0  0  0  0  0  0  0
    2.5939   17.8933   21.1288 H   0  0  0  0  0  0  0  0  0  0  0  0
    4.5668   18.2888   21.5889 C   0  0  0  0  0  0  0  0  0  0  0  0
    4.6141   19.4302   20.8029 C   0  0  0  0  0  0  0  0  0  0  0  0
    5.7152   20.2932   20.8987 C   0  0  0  0  0  0  0  0  0  0  0  0
    5.8123   21.4613   20.1198 C   0  0  0  0  0  0  0  0  0  0  0  0
    6.9198   22.2999   20.2387 C   0  0  0  0  0  0  0  0  0  0  0  0
    7.9342   21.9784   21.1337 C   0  0  0  0  0  0  0  0  0  0  0  0
    7.8363   20.8176   21.9050 C   0  0  0  0  0  0  0  0  0  0  0  0
    6.7403   19.9675   21.8013 C   0  0  0  0  0  0  0  0  0  0  0  0
    6.6560   18.8569   22.5447 N   0  0  0  0  0  0  0  0  0  0  0  0
    5.5659   18.0135   22.4395 N   0  0  0  0  0  0  0  0  0  0  0  0
   -1.5454   13.1907   23.8320 C   0  0  0  0  0  0  0  0  0  0  0  0
   -2.1159   13.5469   25.2047 C   0  0  0  0  0  0  0  0  0  0  0  0
   -1.4428   11.6782   23.6381 C   0  0  0  0  0  0  0  0  0  0  0  0
 10 11  1  0  0  0
 11 12  2  0  0  0
 12 13  1  0  0  0
 13 14  2  0  0  0
 14 15  1  0  0  0
 15 16  2  0  0  0
 16  1  1  0  0  0
  1  2  1  0  0  0
  2  3  2  0  0  0
  3 17  1  0  0  0
 17 18  2  0  0  0
 17 19  1  0  0  0
 19 21  1  0  0  0
 21 22  2  0  0  0
 22 23  1  0  0  0
 23 24  2  0  0  0
 24 25  1  0  0  0
 25 26  2  0  0  0
 26 27  1  0  0  0
 27 28  2  0  0  0
 28 29  1  0  0  0
 29 30  2  0  0  0
  3  4  1  0  0  0
  4  5  1  0  0  0
  5  6  2  0  0  0
  6  7  1  0  0  0
  7 31  1  0  0  0
 31 32  1  0  0  0
 31 33  1  0  0  0
  7  8  1  0  0  0
  8  9  1  0  0  0
 16 11  1  0  0  0
  9  1  2  0  0  0
 30 21  1  0  0  0
  8  4  2  0  0  0
 28 23  1  0  0  0
 19 20  1  0  0  0
M  END
> <minimizedAffinity>
-3.22422

$$$$
OCNT-2309734


 25 27  0  0  0  0  0  0  0  0999 V2000
    2.5584   17.3123   20.9831 N   0  0  0  0  0  0  0  0  0  0  0  0
    3.8753   17.0930   21.3264 C   0  0  0  0  0  0  0  0  0  0  0  0
    4.4366   16.0023   21.3257 O   0  0  0  0  0  0  0  0  0  0  0  0
    2.1951   18.2536   21.1447 H   0  0  0  0  0  0  0  0  0  0  0  0
    4.5972   18.2801   21.7746 C   0  0  0  0  0  0  0  0  0  0  0  0
    5.3446   18.3041   22.9449 C   0  0  0  0  0  0  0  0  0  0  0  0
    5.9127   19.5215   23.1562 O   0  0  0  0  0  0  0  0  0  0  0  0
    5.5464   20.2781   22.1021 C   0  0  0  0  0  0  0  0  0  0  0  0
    4.7622   19.5806   21.2105 C   0  0  0  0  0  0  0  0  0  0  0  0
    4.3122   20.2157   19.9886 C   0  0  0  0  0  0  0  0  0  0  0  0
    3.5707   19.6758   19.1773 O   0  0  0  0  0  0  0  0  0  0  0  0
    4.7787   21.5046   19.7915 N   0  0  0  0  0  0  0  0  0  0  0  0
    5.9496   22.0407   20.4904 C   0  0  0  0  0  0  0  0  0  0  0  0
    5.9888   21.6816   21.9858 C   0  0  0  0  0  0  0  0  0  0  0  0
    4.5393   21.8794   18.8820 H   0  0  0  0  0  0  0  0  0  0  0  0
    0.7143   16.7610   19.4675 C   0  0  0  0  0  0  0  0  0  0  0  0
   -0.2112   15.8346   18.9515 C   0  0  0  0  0  0  0  0  0  0  0  0
   -0.2560   14.5326   19.4440 C   0  0  0  0  0  0  0  0  0  0  0  0
    0.6176   14.1505   20.4553 C   0  0  0  0  0  0  0  0  0  0  0  0
    1.5400   15.0646   20.9760 C   0  0  0  0  0  0  0  0  0  0  0  0
    1.6068   16.3794   20.4959 C   0  0  0  0  0  0  0  0  0  0  0  0
    0.6929   18.1599   18.9604 C   0  0  0  0  0  0  0  0  0  0  0  0
    0.5401   19.1373   19.6775 O   0  0  0  0  0  0  0  0  0  0  0  0
   -0.0999   18.9218   16.9027 C   0  0  0  0  0  0  0  0  0  0  0  0
    0.8891   18.1806   17.6174 O   0  0  0  0  0  0  0  0  0  0  0  0
 24 25  1  0  0  0
 25 22  1  0  0  0
 22 23  2  0  0  0
 22 16  1  0  0  0
 16 17  2  0  0  0
 17 18  1  0  0  0
 18 19  2  0  0  0
 19 20  1  0  0  0
 20 21  2  0  0  0
 21  1  1  0  0  0
  1  2  1  0  0  0
  2  3  2  0  0  0
  2  5  1  0  0  0
  5  6  2  0  0  0
  6  7  1  0  0  0
  7  8  1  0  0  0
  8  9  2  0  0  0
  9 10  1  0  0  0
 10 11  2  0  0  0
 10 12  1  0  0  0
 12 13  1  0  0  0
 13 14  1  0  0  0
 21 16  1  0  0  0
  9  5  1  0  0  0
 14  8  1  0  0  0
  1  4  1  0  0  0
 12 15  1  0  0  0
M  END
> <minimizedAffinity>
-10.83503

$$$$
OCNT-2309736


 27 29  0  0  0  0  0  0  0  0999 V2000
    4.0594   16.8031   22.0152 C   0  0  0  0  0  0  0  0  0  0  0  0
    5.3038   16.2296   21.3354 C   0  0  0  0  0  0  0  0  0  0  0  0
   -0.0419   14.0234   20.0119 C   0  0  0  0  0  0  0  0  0  0  0  0
    0.9377   15.0930   20.3539 C   0  0  0  0  0  0  0  0  0  0  0  0
    1.0455   16.4053   19.9180 C   0  0  0  0  0  0  0  0  0  0  0  0
    2.1360   17.1028   20.4102 N   0  0  0  0  0  0  0  0  0  0  0  0
    2.8113   16.3613   21.2711 C   0  0  0  0  0  0  0  0  0  0  0  0
    2.2072   14.7580   21.4641 S   0  0  0  0  0  0  0  0  0  0  0  0
    0.1498   17.0496   18.9656 C   0  0  0  0  0  0  0  0  0  0  0  0
   -0.0263   18.4416   19.0292 C   0  0  0  0  0  0  0  0  0  0  0  0
   -0.8859   19.0889   18.1381 C   0  0  0  0  0  0  0  0  0  0  0  0
   -1.5790   18.3438   17.1835 C   0  0  0  0  0  0  0  0  0  0  0  0
   -2.6278   19.1405   16.0721 Cl  0  0  0  0  0  0  0  0  0  0  0  0
   -1.4302   16.9578   17.1209 C   0  0  0  0  0  0  0  0  0  0  0  0
   -0.5692   16.3110   18.0131 C   0  0  0  0  0  0  0  0  0  0  0  0
    4.1223   18.2533   22.0622 N   0  0  0  0  0  0  0  0  0  0  0  0
    5.0186   18.9021   22.8738 C   0  0  0  0  0  0  0  0  0  0  0  0
    5.7162   18.3274   23.7100 O   0  0  0  0  0  0  0  0  0  0  0  0
    3.9687   18.7268   21.1545 H   0  0  0  0  0  0  0  0  0  0  0  0
    5.0761   20.4090   22.6983 C   0  0  0  0  0  0  0  0  0  0  0  0
    5.7179   20.8960   21.3927 C   0  0  0  0  0  0  0  0  0  0  0  0
    7.0627   20.2027   20.9839 C   0  0  0  0  0  0  0  0  0  0  0  0
    7.5835   21.5877   20.5549 C   0  0  0  0  0  0  0  0  0  0  0  0
    6.5737   22.2015   21.5467 C   0  0  0  0  0  0  0  0  0  0  0  0
    4.6721   20.9319   20.2778 C   0  0  0  0  0  0  0  0  0  0  0  0
    4.4847   19.8845   19.5888 O   0  0  0  0  0  0  0  0  0  0  0  0
    4.0909   22.0496   20.0825 O   0  0  0  0  0  0  0  0  0  0  0  0
  3  4  1  0  0  0
  4  5  2  0  0  0
  5  9  1  0  0  0
  9 10  1  0  0  0
 10 11  2  0  0  0
 11 12  1  0  0  0
 12 13  1  0  0  0
 12 14  2  0  0  0
 14 15  1  0  0  0
  5  6  1  0  0  0
  6  7  2  0  0  0
  7  1  1  0  0  0
  1  2  1  0  0  0
  1 16  1  0  0  0
 16 17  1  0  0  0
 17 18  2  0  0  0
 17 20  1  0  0  0
 20 21  1  0  0  0
 21 25  1  0  0  0
 25 26  2  0  0  0
 25 27  1  0  0  0
 21 22  1  0  0  0
 22 23  1  0  0  0
 23 24  1  0  0  0
  7  8  1  0  0  0
  8  4  1  0  0  0
 15  9  2  0  0  0
 24 21  1  0  0  0
 16 19  1  0  0  0
M  CHG 1  27  -1
M  END
> <minimizedAffinity>
-8.12698

$$$$
OCNT-2309752


 38 43  0  0  0  0  0  0  0  0999 V2000
   -2.5048   19.0282   16.7147 N   0  0  0  0  0  0  0  0  0  0  0  0
   -1.3810   18.9350   17.4640 C   0  0  0  0  0  0  0  0  0  0  0  0
   -0.2718   19.4665   17.0727 N   0  0  0  0  0  0  0  0  0  0  0  0
    0.8012   19.3221   17.8920 C   0  0  0  0  0  0  0  0  0  0  0  0
    1.9992   19.8595   17.7779 N   0  0  0  0  0  0  0  0  0  0  0  0
    2.7237   19.4188   18.8579 C   0  0  0  0  0  0  0  0  0  0  0  0
    4.0539   19.6909   19.2081 C   0  0  0  0  0  0  0  0  0  0  0  0
    4.5637   19.1382   20.3881 C   0  0  0  0  0  0  0  0  0  0  0  0
    3.7735   18.3077   21.1909 C   0  0  0  0  0  0  0  0  0  0  0  0
    2.4548   17.9968   20.8368 C   0  0  0  0  0  0  0  0  0  0  0  0
    1.9593   18.5839   19.6674 C   0  0  0  0  0  0  0  0  0  0  0  0
    0.7590   18.5240   19.0131 N   0  0  0  0  0  0  0  0  0  0  0  0
   -0.4561   17.8158   19.3817 C   0  0  0  0  0  0  0  0  0  0  0  0
   -1.6149   18.2419   18.6083 N   0  0  0  0  0  0  0  0  0  0  0  0
    4.2588   17.6727   22.3051 O   0  0  0  0  0  0  0  0  0  0  0  0
    4.6627   18.5958   23.3169 C   0  0  0  0  0  0  0  0  0  0  0  0
    6.0613   19.1390   23.0700 C   0  0  0  0  0  0  0  0  0  0  0  0
    6.0808   20.0769   21.8732 C   0  0  0  0  0  0  0  0  0  0  0  0
    5.8889   19.3748   20.6457 O   0  0  0  0  0  0  0  0  0  0  0  0
   -2.3470   19.6622   15.9346 H   0  0  0  0  0  0  0  0  0  0  0  0
   -3.3097   19.3317   17.2495 H   0  0  0  0  0  0  0  0  0  0  0  0
   -2.3164   17.5186   18.5019 H   0  0  0  0  0  0  0  0  0  0  0  0
   -0.2889   16.3092   19.2608 C   0  0  0  0  0  0  0  0  0  0  0  0
   -0.7297   15.6065   18.1285 C   0  0  0  0  0  0  0  0  0  0  0  0
   -0.5770   14.2227   18.0521 C   0  0  0  0  0  0  0  0  0  0  0  0
    0.0122   13.5173   19.1037 C   0  0  0  0  0  0  0  0  0  0  0  0
    0.4518   14.1938   20.2394 C   0  0  0  0  0  0  0  0  0  0  0  0
    0.2899   15.5815   20.3152 C   0  0  0  0  0  0  0  0  0  0  0  0
    1.0322   13.6341   21.3439 O   0  0  0  0  0  0  0  0  0  0  0  0
    0.7121   14.1753   22.6301 C   0  0  0  0  0  0  0  0  0  0  0  0
   -0.4287   13.4455   23.2951 C   0  0  0  0  0  0  0  0  0  0  0  0
   -0.8165   12.1599   22.8860 C   0  0  0  0  0  0  0  0  0  0  0  0
   -1.8951   11.5212   23.5012 C   0  0  0  0  0  0  0  0  0  0  0  0
   -2.5922   12.1698   24.5155 C   0  0  0  0  0  0  0  0  0  0  0  0
   -3.6267   11.5532   25.1012 F   0  0  0  0  0  0  0  0  0  0  0  0
   -2.2360   13.4458   24.9261 C   0  0  0  0  0  0  0  0  0  0  0  0
   -1.1609   14.0738   24.3086 C   0  0  0  0  0  0  0  0  0  0  0  0
   -0.8226   15.3090   24.7047 F   0  0  0  0  0  0  0  0  0  0  0  0
  1  2  1  0  0  0
  2  3  2  0  0  0
  3  4  1  0  0  0
  4  5  2  0  0  0
  5  6  1  0  0  0
  6  7  2  0  0  0
  7  8  1  0  0  0
  8  9  2  0  0  0
  9 10  1  0  0  0
 10 11  2  0  0  0
 11 12  1  0  0  0
 12 13  1  0  0  0
 13 23  1  0  0  0
 23 24  2  0  0  0
 24 25  1  0  0  0
 25 26  2  0  0  0
 26 27  1  0  0  0
 27 29  1  0  0  0
 29 30  1  0  0  0
 30 31  1  0  0  0
 31 32  1  0  0  0
 32 33  2  0  0  0
 33 34  1  0  0  0
 34 35  1  0  0  0
 34 36  2  0  0  0
 36 37  1  0  0  0
 37 38  1  0  0  0
 27 28  2  0  0  0
 13 14  1  0  0  0
  9 15  1  0  0  0
 15 16  1  0  0  0
 16 17  1  0  0  0
 17 18  1  0  0  0
 18 19  1  0  0  0
 14  2  1  0  0  0
 12  4  1  0  0  0
 28 23  1  0  0  0
 11  6  1  0  0  0
 37 31  2  0  0  0
 19  8  1  0  0  0
  1 20  1  0  0  0
  1 21  1  0  0  0
 14 22  1  0  0  0
M  END
> <minimizedAffinity>
-6.20658

$$$$
OCNT-2309757


 23 25  0  0  0  0  0  0  0  0999 V2000
    2.1108   17.6687   20.0672 C   0  0  0  0  0  0  0  0  0  0  0  0
    1.1042   17.1148   19.3016 C   0  0  0  0  0  0  0  0  0  0  0  0
    0.3630   17.6084   18.1076 C   0  0  0  0  0  0  0  0  0  0  0  0
   -0.9234   16.8137   17.8699 C   0  0  0  0  0  0  0  0  0  0  0  0
   -0.6665   15.3115   17.9949 C   0  0  0  0  0  0  0  0  0  0  0  0
   -0.1550   14.9618   19.3931 C   0  0  0  0  0  0  0  0  0  0  0  0
    0.8717   15.8796   19.8557 N   0  0  0  0  0  0  0  0  0  0  0  0
    1.7085   15.7180   20.9352 C   0  0  0  0  0  0  0  0  0  0  0  0
    2.4738   16.7920   21.0741 N   0  0  0  0  0  0  0  0  0  0  0  0
    1.6893   14.4844   21.7790 C   0  0  0  0  0  0  0  0  0  0  0  0
    2.7637   14.4308   22.6137 F   0  0  0  0  0  0  0  0  0  0  0  0
    1.6982   13.3350   21.0575 F   0  0  0  0  0  0  0  0  0  0  0  0
    0.5884   14.4402   22.5774 F   0  0  0  0  0  0  0  0  0  0  0  0
    2.7895   19.0081   19.9474 C   0  0  0  0  0  0  0  0  0  0  0  0
    4.2292   18.9102   19.7098 N   0  0  0  0  0  0  0  0  0  0  0  0
    4.4017   19.0337   18.7153 H   0  0  0  0  0  0  0  0  0  0  0  0
    5.7012   17.8788   21.9596 C   0  0  0  0  0  0  0  0  0  0  0  0
    5.7253   19.3276   21.5655 C   0  0  0  0  0  0  0  0  0  0  0  0
    6.4866   20.2367   22.3121 C   0  0  0  0  0  0  0  0  0  0  0  0
    6.5017   21.5780   21.9592 C   0  0  0  0  0  0  0  0  0  0  0  0
    5.7503   21.9643   20.8682 C   0  0  0  0  0  0  0  0  0  0  0  0
    5.0108   21.1145   20.1233 N   0  0  0  0  0  0  0  0  0  0  0  0
    5.0110   19.8038   20.4546 C   0  0  0  0  0  0  0  0  0  0  0  0
 17 18  1  0  0  0
 18 19  1  0  0  0
 19 20  2  0  0  0
 20 21  1  0  0  0
 21 22  2  0  0  0
 22 23  1  0  0  0
 23 15  1  0  0  0
 15 14  1  0  0  0
 14  1  1  0  0  0
  1  2  2  0  0  0
  2  3  1  0  0  0
  3  4  1  0  0  0
  4  5  1  0  0  0
  5  6  1  0  0  0
  6  7  1  0  0  0
  7  8  1  0  0  0
  8 10  1  0  0  0
 10 11  1  0  0  0
 10 12  1  0  0  0
 10 13  1  0  0  0
  8  9  2  0  0  0
 23 18  2  0  0  0
  9  1  1  0  0  0
  7  2  1  0  0  0
 15 16  1  0  0  0
M  END
> <minimizedAffinity>
-10.96507

$$$$
OCNT-2309758


 23 26  0  0  0  0  0  0  0  0999 V2000
    6.6758   19.7312   21.9566 C   0  0  0  0  0  0  0  0  0  0  0  0
    5.3804   19.3100   21.3264 C   0  0  0  0  0  0  0  0  0  0  0  0
    4.7504   20.1372   20.3906 C   0  0  0  0  0  0  0  0  0  0  0  0
    3.5573   19.7581   19.7656 C   0  0  0  0  0  0  0  0  0  0  0  0
    3.0159   18.5121   20.1000 C   0  0  0  0  0  0  0  0  0  0  0  0
    1.8710   17.8922   19.6466 N   0  0  0  0  0  0  0  0  0  0  0  0
    1.7398   16.6704   20.2443 C   0  0  0  0  0  0  0  0  0  0  0  0
    2.8044   16.4903   21.1022 C   0  0  0  0  0  0  0  0  0  0  0  0
    2.9853   15.2476   21.9116 C   0  0  0  0  0  0  0  0  0  0  0  0
    1.6772   14.4114   21.9807 C   0  0  0  0  0  0  0  0  0  0  0  0
    0.9635   14.3471   20.6056 C   0  0  0  0  0  0  0  0  0  0  0  0
    0.6135   15.7275   20.0205 C   0  0  0  0  0  0  0  0  0  0  0  0
    3.6214   17.6520   21.0190 C   0  0  0  0  0  0  0  0  0  0  0  0
    4.8237   18.0567   21.6336 C   0  0  0  0  0  0  0  0  0  0  0  0
    1.2321   18.2930   18.9739 H   0  0  0  0  0  0  0  0  0  0  0  0
    0.7453   14.9601   22.9739 N   0  0  0  0  0  0  0  0  0  0  0  0
    1.2210   15.5065   23.6909 H   0  0  0  0  0  0  0  0  0  0  0  0
   -0.2509   14.2068   23.5047 C   0  0  0  0  0  0  0  0  0  0  0  0
   -0.5217   12.9982   23.0666 N   0  0  0  0  0  0  0  0  0  0  0  0
   -1.5769   12.4725   23.8000 C   0  0  0  0  0  0  0  0  0  0  0  0
   -2.0837   11.1141   23.4973 C   0  0  0  0  0  0  0  0  0  0  0  0
   -2.1299   13.1952   24.7756 N   0  0  0  0  0  0  0  0  0  0  0  0
   -1.2898   14.6353   24.8208 S   0  0  0  0  0  0  0  0  0  0  0  0
  1  2  1  0  0  0
  2  3  2  0  0  0
  3  4  1  0  0  0
  4  5  2  0  0  0
  5  6  1  0  0  0
  6  7  1  0  0  0
  7  8  2  0  0  0
  8  9  1  0  0  0
  9 10  1  0  0  0
 10 16  1  0  0  0
 16 18  1  0  0  0
 18 19  2  0  0  0
 19 20  1  0  0  0
 20 21  1  0  0  0
 20 22  2  0  0  0
 22 23  1  0  0  0
 10 11  1  0  0  0
 11 12  1  0  0  0
  8 13  1  0  0  0
 13 14  2  0  0  0
 14  2  1  0  0  0
 13  5  1  0  0  0
 12  7  1  0  0  0
 23 18  1  0  0  0
  6 15  1  0  0  0
 16 17  1  0  0  0
M  END
> <minimizedAffinity>
-8.20592

$$$$
OCNT-2309765


 25 29  0  0  0  0  0  0  0  0999 V2000
    2.0827   15.3837   21.5820 C   0  0  0  0  0  0  0  0  0  0  0  0
    0.9741   15.3100   20.7609 C   0  0  0  0  0  0  0  0  0  0  0  0
    0.2272   14.2805   21.2828 N   0  0  0  0  0  0  0  0  0  0  0  0
    0.7681   13.7029   22.3700 N   0  0  0  0  0  0  0  0  0  0  0  0
    1.9038   14.3810   22.5504 C   0  0  0  0  0  0  0  0  0  0  0  0
   -0.6667   13.9346   20.9493 H   0  0  0  0  0  0  0  0  0  0  0  0
    0.5430   16.0717   19.5973 C   0  0  0  0  0  0  0  0  0  0  0  0
   -0.2735   15.4671   18.6163 C   0  0  0  0  0  0  0  0  0  0  0  0
   -0.6913   16.1809   17.4876 C   0  0  0  0  0  0  0  0  0  0  0  0
   -0.2764   17.4884   17.3678 C   0  0  0  0  0  0  0  0  0  0  0  0
   -0.5818   18.3297   16.3449 O   0  0  0  0  0  0  0  0  0  0  0  0
    0.1028   19.5285   16.7645 C   0  0  0  0  0  0  0  0  0  0  0  0
    0.8164   19.3746   18.0097 O   0  0  0  0  0  0  0  0  0  0  0  0
    0.5206   18.0831   18.3166 C   0  0  0  0  0  0  0  0  0  0  0  0
    0.9479   17.4053   19.4397 C   0  0  0  0  0  0  0  0  0  0  0  0
    4.4672   18.0643   21.2204 C   0  0  0  0  0  0  0  0  0  0  0  0
    5.3785   17.1086   21.4355 N   0  0  0  0  0  0  0  0  0  0  0  0
    4.5997   15.9641   21.6067 O   0  0  0  0  0  0  0  0  0  0  0  0
    3.2911   16.3465   21.4702 C   0  0  0  0  0  0  0  0  0  0  0  0
    3.1653   17.6358   21.2320 N   0  0  0  0  0  0  0  0  0  0  0  0
    4.5351   21.5857   20.0297 C   0  0  0  0  0  0  0  0  0  0  0  0
    4.0439   20.2986   20.0775 C   0  0  0  0  0  0  0  0  0  0  0  0
    4.7816   19.4744   20.9821 C   0  0  0  0  0  0  0  0  0  0  0  0
    5.8073   20.1706   21.5870 C   0  0  0  0  0  0  0  0  0  0  0  0
    5.8777   21.8006   21.0687 S   0  0  0  0  0  0  0  0  0  0  0  0
 21 22  2  0  0  0
 22 23  1  0  0  0
 23 16  1  0  0  0
 16 17  2  0  0  0
 17 18  1  0  0  0
 18 19  1  0  0  0
 19  1  1  0  0  0
  1  2  2  0  0  0
  2  7  1  0  0  0
  7  8  1  0  0  0
  8  9  2  0  0  0
  9 10  1  0  0  0
 10 11  1  0  0  0
 11 12  1  0  0  0
 12 13  1  0  0  0
 13 14  1  0  0  0
 14 15  1  0  0  0
  2  3  1  0  0  0
  3  4  1  0  0  0
  4  5  2  0  0  0
 19 20  2  0  0  0
 23 24  2  0  0  0
 24 25  1  0  0  0
 25 21  1  0  0  0
 20 16  1  0  0  0
  5  1  1  0  0  0
 15  7  2  0  0  0
 14 10  2  0  0  0
  3  6  1  0  0  0
M  END
> <minimizedAffinity>
-10.62614

$$$$
OCNT-2309780


 26 28  0  0  0  0  0  0  0  0999 V2000
    3.5079   16.2216   21.4601 C   0  0  0  0  0  0  0  0  0  0  0  0
    4.0576   15.3050   22.0592 O   0  0  0  0  0  0  0  0  0  0  0  0
    2.3106   16.1038   20.7844 N   0  0  0  0  0  0  0  0  0  0  0  0
    1.9102   16.9861   20.4727 H   0  0  0  0  0  0  0  0  0  0  0  0
    5.2518   20.1147   21.3831 C   0  0  0  0  0  0  0  0  0  0  0  0
    4.4497   19.6918   20.3204 C   0  0  0  0  0  0  0  0  0  0  0  0
    3.8763   18.4183   20.3241 C   0  0  0  0  0  0  0  0  0  0  0  0
    4.0993   17.5990   21.4203 C   0  0  0  0  0  0  0  0  0  0  0  0
    4.8412   17.9675   22.4993 N   0  0  0  0  0  0  0  0  0  0  0  0
    5.3727   19.2141   22.4503 C   0  0  0  0  0  0  0  0  0  0  0  0
    7.0328   21.7114   20.7893 C   0  0  0  0  0  0  0  0  0  0  0  0
    5.7971   21.3969   21.4854 N   0  0  0  0  0  0  0  0  0  0  0  0
    5.7841   21.7490   22.4404 H   0  0  0  0  0  0  0  0  0  0  0  0
    1.4729   14.9263   20.8928 C   0  0  0  0  0  0  0  0  0  0  0  0
    0.0140   15.2385   20.5629 C   0  0  0  0  0  0  0  0  0  0  0  0
   -0.1496   15.8168   19.1913 C   0  0  0  0  0  0  0  0  0  0  0  0
   -0.5361   15.1361   18.0468 C   0  0  0  0  0  0  0  0  0  0  0  0
   -0.8858   13.7069   17.8400 C   0  0  0  0  0  0  0  0  0  0  0  0
   -0.5601   16.0387   17.0132 N   0  0  0  0  0  0  0  0  0  0  0  0
   -0.2056   17.2910   17.4544 C   0  0  0  0  0  0  0  0  0  0  0  0
   -0.1014   18.4981   16.7525 C   0  0  0  0  0  0  0  0  0  0  0  0
    0.2846   19.6337   17.4701 C   0  0  0  0  0  0  0  0  0  0  0  0
    0.5547   19.5617   18.8343 C   0  0  0  0  0  0  0  0  0  0  0  0
    0.4455   18.3459   19.5194 C   0  0  0  0  0  0  0  0  0  0  0  0
    0.0585   17.1847   18.8185 C   0  0  0  0  0  0  0  0  0  0  0  0
   -0.8080   15.8226   16.0580 H   0  0  0  0  0  0  0  0  0  0  0  0
 11 12  1  0  0  0
 12  5  1  0  0  0
  5  6  2  0  0  0
  6  7  1  0  0  0
  7  8  2  0  0  0
  8  1  1  0  0  0
  1  2  2  0  0  0
  1  3  1  0  0  0
  3 14  1  0  0  0
 14 15  1  0  0  0
 15 16  1  0  0  0
 16 17  2  0  0  0
 17 18  1  0  0  0
 17 19  1  0  0  0
 19 20  1  0  0  0
 20 21  2  0  0  0
 21 22  1  0  0  0
 22 23  2  0  0  0
 23 24  1  0  0  0
 24 25  2  0  0  0
  8  9  1  0  0  0
  9 10  2  0  0  0
 10  5  1  0  0  0
 25 16  1  0  0  0
 25 20  1  0  0  0
 12 13  1  0  0  0
  3  4  1  0  0  0
 19 26  1  0  0  0
M  END
> <minimizedAffinity>
-9.65807

$$$$
OCNT-2309782


 25 27  0  0  0  0  0  0  0  0999 V2000
    0.8456   19.0135   18.0198 C   0  0  0  0  0  0  0  0  0  0  0  0
   -0.2396   19.3603   17.1468 O   0  0  0  0  0  0  0  0  0  0  0  0
   -1.0674   19.3712   17.6725 H   0  0  0  0  0  0  0  0  0  0  0  0
    0.7049   17.5742   18.5370 C   0  0  0  0  0  0  0  0  0  0  0  0
    1.0993   17.5493   19.9181 O   0  0  0  0  0  0  0  0  0  0  0  0
    2.2151   15.8532   21.2739 C   0  0  0  0  0  0  0  0  0  0  0  0
    2.2386   14.5175   21.6881 C   0  0  0  0  0  0  0  0  0  0  0  0
    1.2956   13.6065   21.2004 C   0  0  0  0  0  0  0  0  0  0  0  0
    0.3190   14.0213   20.2977 C   0  0  0  0  0  0  0  0  0  0  0  0
    0.2757   15.3515   19.8887 C   0  0  0  0  0  0  0  0  0  0  0  0
    1.2035   16.2659   20.3927 C   0  0  0  0  0  0  0  0  0  0  0  0
    4.4877   16.4343   21.6845 C   0  0  0  0  0  0  0  0  0  0  0  0
    3.1156   16.8048   21.6729 O   0  0  0  0  0  0  0  0  0  0  0  0
    0.9842   20.0464   19.1516 C   0  0  0  0  0  0  0  0  0  0  0  0
    2.3109   20.5993   19.3217 N   0  0  0  0  0  0  0  0  0  0  0  0
    2.4918   21.8689   19.8046 N   0  0  0  0  0  0  0  0  0  0  0  0
    3.7100   22.0230   20.1228 N   0  0  0  0  0  0  0  0  0  0  0  0
    4.3898   20.8624   19.8660 N   0  0  0  0  0  0  0  0  0  0  0  0
    3.4945   19.9001   19.4449 C   0  0  0  0  0  0  0  0  0  0  0  0
    3.6863   18.7137   19.2368 O   0  0  0  0  0  0  0  0  0  0  0  0
    5.7150   20.6035   20.3638 C   0  0  0  0  0  0  0  0  0  0  0  0
    5.7187   19.9288   21.7345 C   0  0  0  0  0  0  0  0  0  0  0  0
    7.1148   20.1930   22.2953 C   0  0  0  0  0  0  0  0  0  0  0  0
    7.7086   21.3302   21.4631 C   0  0  0  0  0  0  0  0  0  0  0  0
    6.5682   21.8459   20.5959 C   0  0  0  0  0  0  0  0  0  0  0  0
 12 13  1  0  0  0
 13  6  1  0  0  0
  6  7  2  0  0  0
  7  8  1  0  0  0
  8  9  2  0  0  0
  9 10  1  0  0  0
 10 11  2  0  0  0
 11  5  1  0  0  0
  5  4  1  0  0  0
  4  1  1  0  0  0
  1  2  1  0  0  0
  1 14  1  0  0  0
 14 15  1  0  0  0
 15 16  1  0  0  0
 16 17  2  0  0  0
 17 18  1  0  0  0
 18 21  1  0  0  0
 21 22  1  0  0  0
 22 23  1  0  0  0
 23 24  1  0  0  0
 24 25  1  0  0  0
 18 19  1  0  0  0
 19 20  2  0  0  0
 11  6  1  0  0  0
 19 15  1  0  0  0
 25 21  1  0  0  0
  2  3  1  0  0  0
M  END
> <minimizedAffinity>
-9.06155

$$$$
OCNT-2309787


 23 25  0  0  0  0  0  0  0  0999 V2000
    0.6907   18.3160   18.9577 C   0  0  0  0  0  0  0  0  0  0  0  0
   -0.6196   18.8544   18.4064 C   0  0  0  0  0  0  0  0  0  0  0  0
    0.5232   18.5930   17.4754 C   0  0  0  0  0  0  0  0  0  0  0  0
    0.6907   16.8539   19.4534 C   0  0  0  0  0  0  0  0  0  0  0  0
   -0.2167   16.0011   18.9305 N   0  0  0  0  0  0  0  0  0  0  0  0
   -0.2187   14.7373   19.3862 C   0  0  0  0  0  0  0  0  0  0  0  0
    0.6373   14.2820   20.3568 C   0  0  0  0  0  0  0  0  0  0  0  0
    1.5270   15.2076   20.8696 C   0  0  0  0  0  0  0  0  0  0  0  0
    1.5593   16.4906   20.4218 N   0  0  0  0  0  0  0  0  0  0  0  0
    2.5157   14.7666   21.9366 C   0  0  0  0  0  0  0  0  0  0  0  0
    1.9487   14.6996   23.1754 F   0  0  0  0  0  0  0  0  0  0  0  0
    3.5655   15.6320   22.0634 F   0  0  0  0  0  0  0  0  0  0  0  0
    3.0739   13.5448   21.7100 F   0  0  0  0  0  0  0  0  0  0  0  0
    1.5022   19.2810   19.7545 N   0  0  0  0  0  0  0  0  0  0  0  0
    1.7980   18.8196   20.6162 H   0  0  0  0  0  0  0  0  0  0  0  0
    2.6930   19.7369   19.0379 C   0  0  0  0  0  0  0  0  0  0  0  0
    7.1041   20.1196   22.5358 F   0  0  0  0  0  0  0  0  0  0  0  0
    6.0557   20.0302   21.7067 C   0  0  0  0  0  0  0  0  0  0  0  0
    5.7520   21.0983   20.8707 C   0  0  0  0  0  0  0  0  0  0  0  0
    4.6610   21.0077   20.0046 C   0  0  0  0  0  0  0  0  0  0  0  0
    3.8698   19.8481   19.9803 C   0  0  0  0  0  0  0  0  0  0  0  0
    4.1995   18.7777   20.8285 C   0  0  0  0  0  0  0  0  0  0  0  0
    5.2909   18.8705   21.6928 C   0  0  0  0  0  0  0  0  0  0  0  0
 17 18  1  0  0  0
 18 19  1  0  0  0
 19 20  2  0  0  0
 20 21  1  0  0  0
 21 16  1  0  0  0
 16 14  1  0  0  0
 14  1  1  0  0  0
  1  4  1  0  0  0
  4  5  2  0  0  0
  5  6  1  0  0  0
  6  7  2  0  0  0
  7  8  1  0  0  0
  8 10  1  0  0  0
 10 11  1  0  0  0
 10 12  1  0  0  0
 10 13  1  0  0  0
  8  9  2  0  0  0
  1  2  1  0  0  0
  2  3  1  0  0  0
 21 22  2  0  0  0
 22 23  1  0  0  0
 23 18  2  0  0  0
  3  1  1  0  0  0
  9  4  1  0  0  0
 14 15  1  0  0  0
M  END
> <minimizedAffinity>
-10.69492

$$$$
OCNT-2309794


 22 24  0  0  0  0  0  0  0  0999 V2000
    3.2388   16.8618   21.2038 C   0  0  0  0  0  0  0  0  0  0  0  0
    3.5164   18.1506   21.2242 N   0  0  0  0  0  0  0  0  0  0  0  0
    4.7335   18.1882   21.8516 C   0  0  0  0  0  0  0  0  0  0  0  0
    5.2221   16.9945   22.2057 N   0  0  0  0  0  0  0  0  0  0  0  0
    4.2315   16.1096   21.7802 O   0  0  0  0  0  0  0  0  0  0  0  0
    1.1972   16.7571   19.5441 C   0  0  0  0  0  0  0  0  0  0  0  0
    1.9351   16.2541   20.6019 C   0  0  0  0  0  0  0  0  0  0  0  0
    1.3547   15.1059   21.0674 N   0  0  0  0  0  0  0  0  0  0  0  0
    0.2779   14.8635   20.3345 N   0  0  0  0  0  0  0  0  0  0  0  0
    0.1797   15.8425   19.4175 N   0  0  0  0  0  0  0  0  0  0  0  0
   -0.9087   15.8075   18.4635 C   0  0  0  0  0  0  0  0  0  0  0  0
   -0.8724   14.5629   17.5960 C   0  0  0  0  0  0  0  0  0  0  0  0
    1.3629   17.9643   18.6883 C   0  0  0  0  0  0  0  0  0  0  0  0
    1.3787   20.3958   19.3485 C   0  0  0  0  0  0  0  0  0  0  0  0
    0.5341   19.1394   19.2086 C   0  0  0  0  0  0  0  0  0  0  0  0
    5.4551   19.4653   22.1078 C   0  0  0  0  0  0  0  0  0  0  0  0
    5.5448   20.4115   20.9251 C   0  0  0  0  0  0  0  0  0  0  0  0
    5.0962   19.8449   19.6030 C   0  0  0  0  0  0  0  0  0  0  0  0
    6.6861   21.4221   20.9047 C   0  0  0  0  0  0  0  0  0  0  0  0
    5.2944   21.8570   21.1783 C   0  0  0  0  0  0  0  0  0  0  0  0
    4.9645   22.3230   22.4288 F   0  0  0  0  0  0  0  0  0  0  0  0
    4.6307   22.6369   20.2594 F   0  0  0  0  0  0  0  0  0  0  0  0
 14 15  1  0  0  0
 15 13  1  0  0  0
 13  6  1  0  0  0
  6  7  2  0  0  0
  7  1  1  0  0  0
  1  2  2  0  0  0
  2  3  1  0  0  0
  3 16  1  0  0  0
 16 17  1  0  0  0
 17 18  1  0  0  0
 17 19  1  0  0  0
 19 20  1  0  0  0
 20 21  1  0  0  0
 20 22  1  0  0  0
  3  4  2  0  0  0
  4  5  1  0  0  0
  7  8  1  0  0  0
  8  9  2  0  0  0
  9 10  1  0  0  0
 10 11  1  0  0  0
 11 12  1  0  0  0
 10  6  1  0  0  0
  5  1  1  0  0  0
 20 17  1  0  0  0
M  END
> <minimizedAffinity>
-8.95586

$$$$
OCNT-2309801


 22 24  0  0  0  0  0  0  0  0999 V2000
    2.1308   15.8906   21.0385 C   0  0  0  0  0  0  0  0  0  0  0  0
    2.3221   14.8538   21.6775 O   0  0  0  0  0  0  0  0  0  0  0  0
    2.9412   17.0159   21.2313 N   0  0  0  0  0  0  0  0  0  0  0  0
    3.7956   17.0637   22.4127 C   0  0  0  0  0  0  0  0  0  0  0  0
    5.1982   17.5526   22.0657 C   0  0  0  0  0  0  0  0  0  0  0  0
    5.1422   18.8624   21.3244 C   0  0  0  0  0  0  0  0  0  0  0  0
    6.2361   19.7386   21.3559 C   0  0  0  0  0  0  0  0  0  0  0  0
    6.1929   20.9354   20.6432 C   0  0  0  0  0  0  0  0  0  0  0  0
    7.5409   22.0047   20.6863 Cl  0  0  0  0  0  0  0  0  0  0  0  0
    5.0708   21.2683   19.8896 C   0  0  0  0  0  0  0  0  0  0  0  0
    3.9823   20.3954   19.8458 C   0  0  0  0  0  0  0  0  0  0  0  0
    4.0082   19.1842   20.5566 C   0  0  0  0  0  0  0  0  0  0  0  0
    2.8143   18.2544   20.4649 C   0  0  0  0  0  0  0  0  0  0  0  0
   -0.5509   16.8597   18.7752 C   0  0  0  0  0  0  0  0  0  0  0  0
    0.3934   17.1135   19.6498 N   0  0  0  0  0  0  0  0  0  0  0  0
    1.0354   15.9405   20.0501 C   0  0  0  0  0  0  0  0  0  0  0  0
    0.5093   14.7970   19.4715 C   0  0  0  0  0  0  0  0  0  0  0  0
   -0.7547   15.1952   18.3929 S   0  0  0  0  0  0  0  0  0  0  0  0
   -1.3365   17.7895   18.1869 N   0  0  0  0  0  0  0  0  0  0  0  0
   -1.8119   18.4305   18.8137 H   0  0  0  0  0  0  0  0  0  0  0  0
    0.2027   19.3394   17.1236 C   0  0  0  0  0  0  0  0  0  0  0  0
   -0.9265   18.3445   16.9109 C   0  0  0  0  0  0  0  0  0  0  0  0
 21 22  1  0  0  0
 22 19  1  0  0  0
 19 14  1  0  0  0
 14 15  2  0  0  0
 15 16  1  0  0  0
 16  1  1  0  0  0
  1  2  2  0  0  0
  1  3  1  0  0  0
  3  4  1  0  0  0
  4  5  1  0  0  0
  5  6  1  0  0  0
  6  7  1  0  0  0
  7  8  2  0  0  0
  8  9  1  0  0  0
  8 10  1  0  0  0
 10 11  2  0  0  0
 11 12  1  0  0  0
 12 13  1  0  0  0
 16 17  2  0  0  0
 17 18  1  0  0  0
 18 14  1  0  0  0
 13  3  1  0  0  0
 12  6  2  0  0  0
 19 20  1  0  0  0
M  END
> <minimizedAffinity>
-9.19161

$$$$
OCNT-2309804


 25 27  0  0  0  0  0  0  0  0999 V2000
    3.7368   21.5095   20.2487 N   0  0  0  0  0  0  0  0  0  0  0  0
    3.4770   20.2858   19.6609 C   0  0  0  0  0  0  0  0  0  0  0  0
    4.3504   19.6028   19.1437 O   0  0  0  0  0  0  0  0  0  0  0  0
    2.1382   19.9774   19.7684 N   0  0  0  0  0  0  0  0  0  0  0  0
    2.9979   22.1846   20.1340 H   0  0  0  0  0  0  0  0  0  0  0  0
    1.6237   20.5456   20.4244 H   0  0  0  0  0  0  0  0  0  0  0  0
    1.4664   18.8620   19.2332 C   0  0  0  0  0  0  0  0  0  0  0  0
    1.5588   17.6572   19.9385 C   0  0  0  0  0  0  0  0  0  0  0  0
    0.9127   16.5054   19.4757 C   0  0  0  0  0  0  0  0  0  0  0  0
    0.1587   16.5459   18.2955 C   0  0  0  0  0  0  0  0  0  0  0  0
    0.0586   17.7504   17.5902 C   0  0  0  0  0  0  0  0  0  0  0  0
    0.7084   18.8996   18.0618 C   0  0  0  0  0  0  0  0  0  0  0  0
   -0.4900   15.3709   17.8367 N   0  0  0  0  0  0  0  0  0  0  0  0
   -1.2167   15.1760   16.6837 C   0  0  0  0  0  0  0  0  0  0  0  0
   -1.6162   13.8638   16.7390 C   0  0  0  0  0  0  0  0  0  0  0  0
   -1.1477   13.2933   17.8814 N   0  0  0  0  0  0  0  0  0  0  0  0
   -0.4628   14.2140   18.5461 N   0  0  0  0  0  0  0  0  0  0  0  0
    5.0794   22.0451   20.1879 C   0  0  0  0  0  0  0  0  0  0  0  0
    6.0588   21.3440   21.1161 C   0  0  0  0  0  0  0  0  0  0  0  0
    7.3984   21.9856   21.4495 C   0  0  0  0  0  0  0  0  0  0  0  0
    7.3527   20.7829   20.5508 C   0  0  0  0  0  0  0  0  0  0  0  0
    5.3871   20.5609   22.2444 C   0  0  0  0  0  0  0  0  0  0  0  0
    5.7920   19.0871   22.3032 C   0  0  0  0  0  0  0  0  0  0  0  0
    4.7708   17.0906   21.5773 C   0  0  0  0  0  0  0  0  0  0  0  0
    4.6217   18.2714   22.3542 O   0  0  0  0  0  0  0  0  0  0  0  0
 24 25  1  0  0  0
 25 23  1  0  0  0
 23 22  1  0  0  0
 22 19  1  0  0  0
 19 18  1  0  0  0
 18  1  1  0  0  0
  1  2  1  0  0  0
  2  3  2  0  0  0
  2  4  1  0  0  0
  4  7  1  0  0  0
  7  8  1  0  0  0
  8  9  2  0  0  0
  9 10  1  0  0  0
 10 13  1  0  0  0
 13 14  1  0  0  0
 14 15  2  0  0  0
 15 16  1  0  0  0
 16 17  2  0  0  0
 10 11  2  0  0  0
 11 12  1  0  0  0
 19 20  1  0  0  0
 20 21  1  0  0  0
 21 19  1  0  0  0
 12  7  2  0  0  0
 17 13  1  0  0  0
  1  5  1  0  0  0
  4  6  1  0  0  0
M  END
> <minimizedAffinity>
-5.10124

$$$$
OCNT-2309805


 25 28  0  0  0  0  0  0  0  0999 V2000
    0.6341   19.3594   18.7238 O   0  0  0  0  0  0  0  0  0  0  0  0
    1.1694   18.2835   18.9785 C   0  0  0  0  0  0  0  0  0  0  0  0
    2.4154   18.1682   19.5941 N   0  0  0  0  0  0  0  0  0  0  0  0
    3.1411   16.9097   19.7648 C   0  0  0  0  0  0  0  0  0  0  0  0
    3.8888   16.8780   21.0953 C   0  0  0  0  0  0  0  0  0  0  0  0
    4.7381   18.1081   21.2855 C   0  0  0  0  0  0  0  0  0  0  0  0
    5.8439   18.0687   22.1482 C   0  0  0  0  0  0  0  0  0  0  0  0
    6.6195   19.2095   22.3568 C   0  0  0  0  0  0  0  0  0  0  0  0
    6.2801   20.4002   21.7052 C   0  0  0  0  0  0  0  0  0  0  0  0
    5.1693   20.4555   20.8522 C   0  0  0  0  0  0  0  0  0  0  0  0
    4.3854   19.3087   20.6420 C   0  0  0  0  0  0  0  0  0  0  0  0
    3.1896   19.3973   19.7185 C   0  0  0  0  0  0  0  0  0  0  0  0
    0.4334   17.0581   18.6362 C   0  0  0  0  0  0  0  0  0  0  0  0
   -0.2542   16.9967   17.4163 C   0  0  0  0  0  0  0  0  0  0  0  0
   -0.9610   15.8471   17.0720 C   0  0  0  0  0  0  0  0  0  0  0  0
   -0.9922   14.7372   17.9249 C   0  0  0  0  0  0  0  0  0  0  0  0
   -0.2817   14.8146   19.1310 C   0  0  0  0  0  0  0  0  0  0  0  0
    0.4403   15.9496   19.5094 C   0  0  0  0  0  0  0  0  0  0  0  0
    1.0355   15.6608   20.7712 C   0  0  0  0  0  0  0  0  0  0  0  0
    0.6634   14.3861   21.1307 C   0  0  0  0  0  0  0  0  0  0  0  0
   -0.1280   13.8823   20.1329 N   0  0  0  0  0  0  0  0  0  0  0  0
   -0.5347   12.9568   20.1226 H   0  0  0  0  0  0  0  0  0  0  0  0
    7.0943   21.6030   21.9196 N   0  0  0  0  0  0  0  0  0  0  0  0
    7.3605   21.9191   23.0881 O   0  0  0  0  0  0  0  0  0  0  0  0
    7.4661   22.2342   20.9197 O   0  0  0  0  0  0  0  0  0  0  0  0
  1  2  2  0  0  0
  2 13  1  0  0  0
 13 14  1  0  0  0
 14 15  2  0  0  0
 15 16  1  0  0  0
 16 17  2  0  0  0
 17 18  1  0  0  0
 18 19  1  0  0  0
 19 20  2  0  0  0
 20 21  1  0  0  0
  2  3  1  0  0  0
  3  4  1  0  0  0
  4  5  1  0  0  0
  5  6  1  0  0  0
  6  7  1  0  0  0
  7  8  2  0  0  0
  8  9  1  0  0  0
  9 23  1  0  0  0
 23 24  2  0  0  0
 23 25  1  0  0  0
  9 10  2  0  0  0
 10 11  1  0  0  0
 11 12  1  0  0  0
 18 13  2  0  0  0
 12  3  1  0  0  0
 21 17  1  0  0  0
 11  6  2  0  0  0
 21 22  1  0  0  0
M  CHG 1  23   1
M  CHG 1  25  -1
M  END
> <minimizedAffinity>
-8.59238

$$$$
OCNT-2309809


 28 32  0  0  0  0  0  0  0  0999 V2000
    0.7865   13.2352   21.8555 O   0  0  0  0  0  0  0  0  0  0  0  0
    0.7577   14.3613   21.3565 C   0  0  0  0  0  0  0  0  0  0  0  0
    1.9166   15.1437   21.2670 N   0  0  0  0  0  0  0  0  0  0  0  0
    3.2054   14.4999   21.6242 C   0  0  0  0  0  0  0  0  0  0  0  0
    4.1661   15.4389   22.3788 C   0  0  0  0  0  0  0  0  0  0  0  0
    4.1317   16.7442   21.6963 C   0  0  0  0  0  0  0  0  0  0  0  0
    3.1567   17.1989   20.8450 C   0  0  0  0  0  0  0  0  0  0  0  0
    3.5731   18.4990   20.4654 C   0  0  0  0  0  0  0  0  0  0  0  0
    4.7742   18.7447   21.1161 C   0  0  0  0  0  0  0  0  0  0  0  0
    5.1125   17.6524   21.8763 O   0  0  0  0  0  0  0  0  0  0  0  0
    1.9686   16.3911   20.4722 C   0  0  0  0  0  0  0  0  0  0  0  0
    5.7041   19.8729   21.1528 C   0  0  0  0  0  0  0  0  0  0  0  0
    6.7965   19.8881   22.0341 C   0  0  0  0  0  0  0  0  0  0  0  0
    7.6826   20.9690   22.0651 C   0  0  0  0  0  0  0  0  0  0  0  0
    7.4895   22.0533   21.2137 C   0  0  0  0  0  0  0  0  0  0  0  0
    6.4117   22.0571   20.3322 C   0  0  0  0  0  0  0  0  0  0  0  0
    5.5260   20.9750   20.3024 C   0  0  0  0  0  0  0  0  0  0  0  0
   -0.5341   14.9933   20.8352 C   0  0  0  0  0  0  0  0  0  0  0  0
   -0.5141   15.2967   19.3693 C   0  0  0  0  0  0  0  0  0  0  0  0
   -0.5930   14.3791   18.3386 C   0  0  0  0  0  0  0  0  0  0  0  0
   -0.5488   15.0599   17.1522 N   0  0  0  0  0  0  0  0  0  0  0  0
   -0.4663   16.4130   17.3811 C   0  0  0  0  0  0  0  0  0  0  0  0
   -0.4106   17.4790   16.4750 C   0  0  0  0  0  0  0  0  0  0  0  0
   -0.3182   18.7713   16.9996 C   0  0  0  0  0  0  0  0  0  0  0  0
   -0.2800   18.9854   18.3750 C   0  0  0  0  0  0  0  0  0  0  0  0
   -0.3363   17.9077   19.2667 C   0  0  0  0  0  0  0  0  0  0  0  0
   -0.4342   16.5936   18.7641 C   0  0  0  0  0  0  0  0  0  0  0  0
   -0.5719   14.6357   16.2357 H   0  0  0  0  0  0  0  0  0  0  0  0
  1  2  2  0  0  0
  2 18  1  0  0  0
 18 19  1  0  0  0
 19 20  2  0  0  0
 20 21  1  0  0  0
 21 22  1  0  0  0
 22 23  2  0  0  0
 23 24  1  0  0  0
 24 25  2  0  0  0
 25 26  1  0  0  0
 26 27  2  0  0  0
  2  3  1  0  0  0
  3  4  1  0  0  0
  4  5  1  0  0  0
  5  6  1  0  0  0
  6  7  2  0  0  0
  7  8  1  0  0  0
  8  9  2  0  0  0
  9 12  1  0  0  0
 12 13  2  0  0  0
 13 14  1  0  0  0
 14 15  2  0  0  0
 15 16  1  0  0  0
 16 17  2  0  0  0
  9 10  1  0  0  0
  7 11  1  0  0  0
 27 19  1  0  0  0
 11  3  1  0  0  0
 27 22  1  0  0  0
 10  6  1  0  0  0
 17 12  1  0  0  0
 21 28  1  0  0  0
M  END
> <minimizedAffinity>
-8.18987

$$$$
OCNT-2309810


 32 37  0  0  0  0  0  0  0  0999 V2000
   -0.1895   17.4174   16.4846 O   0  0  0  0  0  0  0  0  0  0  0  0
   -0.3155   17.3451   17.7092 C   0  0  0  0  0  0  0  0  0  0  0  0
   -0.4120   16.1127   18.3448 N   0  0  0  0  0  0  0  0  0  0  0  0
   -0.5012   14.9288   17.4949 C   0  0  0  0  0  0  0  0  0  0  0  0
   -0.8831   13.6771   18.2730 C   0  0  0  0  0  0  0  0  0  0  0  0
    0.1166   13.4007   19.3966 C   0  0  0  0  0  0  0  0  0  0  0  0
    0.4988   14.6782   20.2193 C   0  0  0  0  0  0  0  0  0  0  0  0
    1.9966   14.9865   19.9131 C   0  0  0  0  0  0  0  0  0  0  0  0
    2.6034   16.0018   20.8703 C   0  0  0  0  0  0  0  0  0  0  0  0
    2.5902   15.4413   22.2836 C   0  0  0  0  0  0  0  0  0  0  0  0
    1.2523   14.8679   22.6800 C   0  0  0  0  0  0  0  0  0  0  0  0
    1.0005   14.6862   24.0518 C   0  0  0  0  0  0  0  0  0  0  0  0
   -0.2075   14.1541   24.4952 C   0  0  0  0  0  0  0  0  0  0  0  0
   -1.1798   13.7924   23.5723 C   0  0  0  0  0  0  0  0  0  0  0  0
   -0.9374   13.9526   22.2070 C   0  0  0  0  0  0  0  0  0  0  0  0
    0.2844   14.4742   21.7317 C   0  0  0  0  0  0  0  0  0  0  0  0
   -0.3949   15.8864   19.7937 C   0  0  0  0  0  0  0  0  0  0  0  0
   -0.3975   18.6175   18.5622 C   0  0  0  0  0  0  0  0  0  0  0  0
    0.4543   19.7319   17.9268 C   0  0  0  0  0  0  0  0  0  0  0  0
    1.1839   20.5874   18.9597 C   0  0  0  0  0  0  0  0  0  0  0  0
    2.0179   19.7476   19.8018 N   0  0  0  0  0  0  0  0  0  0  0  0
    1.5449   18.4258   20.1896 C   0  0  0  0  0  0  0  0  0  0  0  0
    0.0307   18.3306   20.0142 C   0  0  0  0  0  0  0  0  0  0  0  0
    3.2725   20.1462   20.1043 C   0  0  0  0  0  0  0  0  0  0  0  0
    3.9133   21.2243   19.6950 N   0  0  0  0  0  0  0  0  0  0  0  0
    5.1409   21.1308   20.2974 C   0  0  0  0  0  0  0  0  0  0  0  0
    6.2577   21.9756   20.2569 C   0  0  0  0  0  0  0  0  0  0  0  0
    7.3963   21.6017   20.9875 C   0  0  0  0  0  0  0  0  0  0  0  0
    7.4200   20.4172   21.7360 C   0  0  0  0  0  0  0  0  0  0  0  0
    6.3094   19.5654   21.7877 C   0  0  0  0  0  0  0  0  0  0  0  0
    5.2036   19.9748   21.0542 C   0  0  0  0  0  0  0  0  0  0  0  0
    4.0067   19.3366   20.9343 O   0  0  0  0  0  0  0  0  0  0  0  0
  1  2  2  0  0  0
  2 18  1  0  0  0
 18 19  1  0  0  0
 19 20  1  0  0  0
 20 21  1  0  0  0
 21 24  1  0  0  0
 24 25  2  0  0  0
 25 26  1  0  0  0
 26 27  2  0  0  0
 27 28  1  0  0  0
 28 29  2  0  0  0
 29 30  1  0  0  0
 30 31  2  0  0  0
 31 32  1  0  0  0
 21 22  1  0  0  0
 22 23  1  0  0  0
  2  3  1  0  0  0
  3  4  1  0  0  0
  4  5  1  0  0  0
  5  6  1  0  0  0
  6  7  1  0  0  0
  7  8  1  0  0  0
  8  9  1  0  0  0
  9 10  1  0  0  0
 10 11  1  0  0  0
 11 12  2  0  0  0
 12 13  1  0  0  0
 13 14  2  0  0  0
 14 15  1  0  0  0
 15 16  2  0  0  0
  7 17  1  0  0  0
 23 18  1  0  0  0
 17  3  1  0  0  0
 32 24  1  0  0  0
 16  7  1  0  0  0
 31 26  1  0  0  0
 16 11  1  0  0  0
M  END
> <minimizedAffinity>
-2.45176

$$$$
OCNT-2309811


 24 27  0  0  0  0  0  0  0  0999 V2000
    2.6420   15.4716   21.6271 C   0  0  0  0  0  0  0  0  0  0  0  0
    2.0279   15.5234   20.4647 N   0  0  0  0  0  0  0  0  0  0  0  0
    0.8945   14.7817   20.7052 C   0  0  0  0  0  0  0  0  0  0  0  0
    0.7838   14.3164   21.9585 N   0  0  0  0  0  0  0  0  0  0  0  0
    1.9537   14.7663   22.5720 O   0  0  0  0  0  0  0  0  0  0  0  0
    3.9374   16.0523   22.0473 C   0  0  0  0  0  0  0  0  0  0  0  0
    3.7944   17.4759   21.9913 O   0  0  0  0  0  0  0  0  0  0  0  0
    6.0681   17.6711   22.0594 O   0  0  0  0  0  0  0  0  0  0  0  0
    4.9730   18.1283   21.7625 C   0  0  0  0  0  0  0  0  0  0  0  0
    4.6888   19.5055   21.1504 C   0  0  0  0  0  0  0  0  0  0  0  0
    4.1615   19.5306   19.7269 C   0  0  0  0  0  0  0  0  0  0  0  0
    2.8216   20.1256   19.3626 C   0  0  0  0  0  0  0  0  0  0  0  0
    3.0501   18.6438   19.2218 C   0  0  0  0  0  0  0  0  0  0  0  0
    5.8698   20.4308   21.4004 C   0  0  0  0  0  0  0  0  0  0  0  0
    5.7750   21.7606   22.1148 C   0  0  0  0  0  0  0  0  0  0  0  0
    6.0323   21.7217   20.6341 C   0  0  0  0  0  0  0  0  0  0  0  0
   -0.1491   14.5587   19.6739 C   0  0  0  0  0  0  0  0  0  0  0  0
   -0.3074   15.8712   18.9417 C   0  0  0  0  0  0  0  0  0  0  0  0
   -0.2757   17.0885   19.6440 C   0  0  0  0  0  0  0  0  0  0  0  0
   -0.4258   18.2994   18.9663 C   0  0  0  0  0  0  0  0  0  0  0  0
   -0.6099   18.2965   17.5892 C   0  0  0  0  0  0  0  0  0  0  0  0
   -0.7544   19.4595   16.9405 F   0  0  0  0  0  0  0  0  0  0  0  0
   -0.6493   17.1054   16.8749 C   0  0  0  0  0  0  0  0  0  0  0  0
   -0.4998   15.8927   17.5491 C   0  0  0  0  0  0  0  0  0  0  0  0
  8  9  2  0  0  0
  9  7  1  0  0  0
  7  6  1  0  0  0
  6  1  1  0  0  0
  1  2  2  0  0  0
  2  3  1  0  0  0
  3 17  1  0  0  0
 17 18  1  0  0  0
 18 19  1  0  0  0
 19 20  2  0  0  0
 20 21  1  0  0  0
 21 22  1  0  0  0
 21 23  2  0  0  0
 23 24  1  0  0  0
  3  4  2  0  0  0
  4  5  1  0  0  0
  9 10  1  0  0  0
 10 11  1  0  0  0
 11 12  1  0  0  0
 12 13  1  0  0  0
 10 14  1  0  0  0
 14 15  1  0  0  0
 15 16  1  0  0  0
  5  1  1  0  0  0
 13 11  1  0  0  0
 16 14  1  0  0  0
 24 18  2  0  0  0
M  END
> <minimizedAffinity>
-9.83953

$$$$
OCNT-2309836


 31 34  0  0  0  0  0  0  0  0999 V2000
    0.3106   19.4361   17.9845 O   0  0  0  0  0  0  0  0  0  0  0  0
    0.8936   18.4239   18.3526 C   0  0  0  0  0  0  0  0  0  0  0  0
    2.1500   18.3431   18.9255 N   0  0  0  0  0  0  0  0  0  0  0  0
    2.5422   17.4168   19.0474 H   0  0  0  0  0  0  0  0  0  0  0  0
    2.9961   19.4130   19.2844 C   0  0  0  0  0  0  0  0  0  0  0  0
    4.3755   19.1834   19.2335 C   0  0  0  0  0  0  0  0  0  0  0  0
    5.2763   20.1926   19.5874 C   0  0  0  0  0  0  0  0  0  0  0  0
    4.8176   21.4444   19.9964 C   0  0  0  0  0  0  0  0  0  0  0  0
    3.4450   21.6783   20.0484 C   0  0  0  0  0  0  0  0  0  0  0  0
    2.5399   20.6661   19.6956 C   0  0  0  0  0  0  0  0  0  0  0  0
    5.8023   22.3338   20.3209 O   0  0  0  0  0  0  0  0  0  0  0  0
    6.6605   21.9913   21.4115 C   0  0  0  0  0  0  0  0  0  0  0  0
    5.8482   21.2604   22.4989 C   0  0  0  0  0  0  0  0  0  0  0  0
    6.4859   20.0838   23.1216 N   0  0  0  0  0  0  0  0  0  0  0  0
    7.2673   19.3135   22.1367 C   0  0  0  0  0  0  0  0  0  0  0  0
    6.7700   17.8843   21.8860 C   0  0  0  0  0  0  0  0  0  0  0  0
    5.2512   17.8361   21.7949 C   0  0  0  0  0  0  0  0  0  0  0  0
    4.5948   18.4485   23.0337 C   0  0  0  0  0  0  0  0  0  0  0  0
    5.5827   19.2358   23.8978 C   0  0  0  0  0  0  0  0  0  0  0  0
    0.2180   17.1129   18.1469 C   0  0  0  0  0  0  0  0  0  0  0  0
   -0.5619   16.9331   17.0001 C   0  0  0  0  0  0  0  0  0  0  0  0
   -1.2074   15.7168   16.7787 C   0  0  0  0  0  0  0  0  0  0  0  0
   -1.0847   14.6794   17.7060 C   0  0  0  0  0  0  0  0  0  0  0  0
   -0.3207   14.8481   18.8714 C   0  0  0  0  0  0  0  0  0  0  0  0
    0.3236   16.0789   19.0890 C   0  0  0  0  0  0  0  0  0  0  0  0
   -0.2002   13.7292   19.8764 C   0  0  0  0  0  0  0  0  0  0  0  0
    0.6102   14.1237   21.0148 N   0  0  0  0  0  0  0  0  0  0  0  0
    1.9168   14.5277   20.9848 C   0  0  0  0  0  0  0  0  0  0  0  0
    2.2309   14.8024   22.2971 C   0  0  0  0  0  0  0  0  0  0  0  0
    1.1505   14.5832   23.1133 N   0  0  0  0  0  0  0  0  0  0  0  0
    0.1877   14.1796   22.3156 C   0  0  0  0  0  0  0  0  0  0  0  0
  1  2  2  0  0  0
  2  3  1  0  0  0
  3  5  1  0  0  0
  5  6  1  0  0  0
  6  7  2  0  0  0
  7  8  1  0  0  0
  8 11  1  0  0  0
 11 12  1  0  0  0
 12 13  1  0  0  0
 13 14  1  0  0  0
 14 15  1  0  0  0
 15 16  1  0  0  0
 16 17  1  0  0  0
 17 18  1  0  0  0
 18 19  1  0  0  0
  8  9  2  0  0  0
  9 10  1  0  0  0
  2 20  1  0  0  0
 20 21  1  0  0  0
 21 22  2  0  0  0
 22 23  1  0  0  0
 23 24  2  0  0  0
 24 26  1  0  0  0
 26 27  1  0  0  0
 27 28  1  0  0  0
 28 29  2  0  0  0
 29 30  1  0  0  0
 30 31  2  0  0  0
 24 25  1  0  0  0
 10  5  2  0  0  0
 25 20  2  0  0  0
 19 14  1  0  0  0
 31 27  1  0  0  0
  3  4  1  0  0  0
M  END
> <minimizedAffinity>
-4.61364

$$$$
OCNT-2309846


 29 31  0  0  0  0  0  0  0  0999 V2000
    1.0331   18.6987   18.9859 C   0  0  0  0  0  0  0  0  0  0  0  0
   -0.1846   18.6848   18.8278 O   0  0  0  0  0  0  0  0  0  0  0  0
    1.8045   17.7191   19.5867 N   0  0  0  0  0  0  0  0  0  0  0  0
    2.8149   17.8731   19.5486 H   0  0  0  0  0  0  0  0  0  0  0  0
    1.3773   16.5132   20.1701 C   0  0  0  0  0  0  0  0  0  0  0  0
    2.1282   16.0251   21.2453 C   0  0  0  0  0  0  0  0  0  0  0  0
    1.7712   14.8344   21.8854 C   0  0  0  0  0  0  0  0  0  0  0  0
    0.6532   14.1068   21.4589 C   0  0  0  0  0  0  0  0  0  0  0  0
   -0.1005   14.6026   20.3870 C   0  0  0  0  0  0  0  0  0  0  0  0
    0.2601   15.7945   19.7477 C   0  0  0  0  0  0  0  0  0  0  0  0
    0.2543   12.8286   22.1500 C   0  0  0  0  0  0  0  0  0  0  0  0
   -0.6529   13.0786   23.2550 N   0  0  0  0  0  0  0  0  0  0  0  0
   -1.4993   12.1741   23.8351 C   0  0  0  0  0  0  0  0  0  0  0  0
   -2.1024   12.8622   24.8620 C   0  0  0  0  0  0  0  0  0  0  0  0
   -1.6328   14.1485   24.9284 N   0  0  0  0  0  0  0  0  0  0  0  0
   -0.7622   14.2498   23.9494 C   0  0  0  0  0  0  0  0  0  0  0  0
    1.8749   19.8799   18.4887 C   0  0  0  0  0  0  0  0  0  0  0  0
    3.6629   20.9294   19.8243 C   0  0  0  0  0  0  0  0  0  0  0  0
    2.9646   21.9126   20.0562 O   0  0  0  0  0  0  0  0  0  0  0  0
    3.2076   19.8697   19.0699 N   0  0  0  0  0  0  0  0  0  0  0  0
    3.6651   18.9714   19.1602 H   0  0  0  0  0  0  0  0  0  0  0  0
    8.4902   22.3466   20.1929 C   0  0  0  0  0  0  0  0  0  0  0  0
    7.3544   21.4506   20.5927 C   0  0  0  0  0  0  0  0  0  0  0  0
    7.5337   20.4923   21.5998 C   0  0  0  0  0  0  0  0  0  0  0  0
    6.4740   19.6748   22.0145 C   0  0  0  0  0  0  0  0  0  0  0  0
    6.6696   18.6792   23.1199 C   0  0  0  0  0  0  0  0  0  0  0  0
    5.2140   19.8424   21.4274 C   0  0  0  0  0  0  0  0  0  0  0  0
    5.0207   20.7939   20.4183 C   0  0  0  0  0  0  0  0  0  0  0  0
    6.0879   21.6064   20.0140 C   0  0  0  0  0  0  0  0  0  0  0  0
 22 23  1  0  0  0
 23 24  1  0  0  0
 24 25  2  0  0  0
 25 26  1  0  0  0
 25 27  1  0  0  0
 27 28  2  0  0  0
 28 18  1  0  0  0
 18 19  2  0  0  0
 18 20  1  0  0  0
 20 17  1  0  0  0
 17  1  1  0  0  0
  1  2  2  0  0  0
  1  3  1  0  0  0
  3  5  1  0  0  0
  5  6  1  0  0  0
  6  7  2  0  0  0
  7  8  1  0  0  0
  8 11  1  0  0  0
 11 12  1  0  0  0
 12 13  1  0  0  0
 13 14  2  0  0  0
 14 15  1  0  0  0
 15 16  2  0  0  0
  8  9  2  0  0  0
  9 10  1  0  0  0
 28 29  1  0  0  0
 29 23  2  0  0  0
 10  5  2  0  0  0
 16 12  1  0  0  0
 20 21  1  0  0  0
  3  4  1  0  0  0
M  END
> <minimizedAffinity>
-5.87883

$$$$
OCNT-2309850


 28 31  0  0  0  0  0  0  0  0999 V2000
    4.4863   16.9039   20.1865 O   0  0  0  0  0  0  0  0  0  0  0  0
    4.0001   16.9279   21.3087 C   0  0  0  0  0  0  0  0  0  0  0  0
    4.6993   17.3846   22.4077 N   0  0  0  0  0  0  0  0  0  0  0  0
    2.7284   16.5456   21.6739 N   0  0  0  0  0  0  0  0  0  0  0  0
    4.4827   16.9177   23.2754 H   0  0  0  0  0  0  0  0  0  0  0  0
    2.4406   16.8451   22.5929 H   0  0  0  0  0  0  0  0  0  0  0  0
    1.7359   15.9581   20.8628 C   0  0  0  0  0  0  0  0  0  0  0  0
    1.3220   14.6366   20.9862 C   0  0  0  0  0  0  0  0  0  0  0  0
    0.3238   14.1444   20.1500 C   0  0  0  0  0  0  0  0  0  0  0  0
   -0.2651   14.9731   19.1898 C   0  0  0  0  0  0  0  0  0  0  0  0
    0.1183   16.3120   19.0302 C   0  0  0  0  0  0  0  0  0  0  0  0
    1.1275   16.7767   19.8932 C   0  0  0  0  0  0  0  0  0  0  0  0
   -0.4642   17.1269   18.0867 N   0  0  0  0  0  0  0  0  0  0  0  0
    0.2839   17.9112   17.1065 C   0  0  0  0  0  0  0  0  0  0  0  0
   -0.7908   18.4228   16.1509 C   0  0  0  0  0  0  0  0  0  0  0  0
   -2.0008   18.5831   17.0538 C   0  0  0  0  0  0  0  0  0  0  0  0
   -1.9000   17.3774   17.9852 C   0  0  0  0  0  0  0  0  0  0  0  0
    6.0845   17.7684   22.2496 C   0  0  0  0  0  0  0  0  0  0  0  0
    6.1932   19.2482   21.9862 C   0  0  0  0  0  0  0  0  0  0  0  0
    7.2435   19.9765   22.5855 C   0  0  0  0  0  0  0  0  0  0  0  0
    7.4080   21.3420   22.3615 C   0  0  0  0  0  0  0  0  0  0  0  0
    6.5382   22.0400   21.5238 C   0  0  0  0  0  0  0  0  0  0  0  0
    5.5049   21.3174   20.9187 C   0  0  0  0  0  0  0  0  0  0  0  0
    5.3131   19.9498   21.1251 C   0  0  0  0  0  0  0  0  0  0  0  0
    4.1809   19.5732   20.3433 C   0  0  0  0  0  0  0  0  0  0  0  0
    3.7171   20.6955   19.6973 C   0  0  0  0  0  0  0  0  0  0  0  0
    4.5208   21.7437   20.0548 N   0  0  0  0  0  0  0  0  0  0  0  0
    4.4147   22.6961   19.7342 H   0  0  0  0  0  0  0  0  0  0  0  0
  1  2  2  0  0  0
  2  3  1  0  0  0
  3 18  1  0  0  0
 18 19  1  0  0  0
 19 20  1  0  0  0
 20 21  2  0  0  0
 21 22  1  0  0  0
 22 23  2  0  0  0
 23 24  1  0  0  0
 24 25  1  0  0  0
 25 26  2  0  0  0
 26 27  1  0  0  0
  2  4  1  0  0  0
  4  7  1  0  0  0
  7  8  1  0  0  0
  8  9  2  0  0  0
  9 10  1  0  0  0
 10 11  2  0  0  0
 11 13  1  0  0  0
 13 14  1  0  0  0
 14 15  1  0  0  0
 15 16  1  0  0  0
 16 17  1  0  0  0
 11 12  1  0  0  0
 24 19  2  0  0  0
 12  7  2  0  0  0
 27 23  1  0  0  0
 17 13  1  0  0  0
  3  5  1  0  0  0
 27 28  1  0  0  0
  4  6  1  0  0  0
M  END
> <minimizedAffinity>
-10.68616

$$$$
OCNT-2309854


 35 38  0  0  0  0  0  0  0  0999 V2000
    3.6463   19.8300   20.1530 C   0  0  0  0  0  0  0  0  0  0  0  0
    4.3779   19.4860   21.2849 C   0  0  0  0  0  0  0  0  0  0  0  0
    5.5631   20.2918   21.2866 C   0  0  0  0  0  0  0  0  0  0  0  0
    6.6718   20.4070   22.1513 C   0  0  0  0  0  0  0  0  0  0  0  0
    7.6891   21.3204   21.8515 C   0  0  0  0  0  0  0  0  0  0  0  0
    7.6151   22.1149   20.7101 C   0  0  0  0  0  0  0  0  0  0  0  0
    6.5267   22.0221   19.8377 C   0  0  0  0  0  0  0  0  0  0  0  0
    5.5189   21.1029   20.1537 C   0  0  0  0  0  0  0  0  0  0  0  0
    4.3556   20.8014   19.4878 N   0  0  0  0  0  0  0  0  0  0  0  0
    4.0677   21.2245   18.6176 H   0  0  0  0  0  0  0  0  0  0  0  0
   -0.0761   18.3672   18.6540 C   0  0  0  0  0  0  0  0  0  0  0  0
    0.8819   17.4770   19.1377 C   0  0  0  0  0  0  0  0  0  0  0  0
    2.0985   17.9597   19.6370 C   0  0  0  0  0  0  0  0  0  0  0  0
    2.3673   19.3324   19.6575 C   0  0  0  0  0  0  0  0  0  0  0  0
    1.4023   20.2202   19.1777 C   0  0  0  0  0  0  0  0  0  0  0  0
    0.1909   19.7367   18.6773 C   0  0  0  0  0  0  0  0  0  0  0  0
   -1.7020   18.6645   16.9454 C   0  0  0  0  0  0  0  0  0  0  0  0
   -1.3016   18.0315   18.1501 O   0  0  0  0  0  0  0  0  0  0  0  0
    3.9859   18.4766   22.3249 C   0  0  0  0  0  0  0  0  0  0  0  0
    5.0685   17.4194   22.5204 C   0  0  0  0  0  0  0  0  0  0  0  0
    4.7527   16.1498   21.7616 C   0  0  0  0  0  0  0  0  0  0  0  0
    4.9771   15.9918   20.5665 O   0  0  0  0  0  0  0  0  0  0  0  0
    4.1940   15.1748   22.5626 N   0  0  0  0  0  0  0  0  0  0  0  0
    3.9482   15.4142   23.5130 H   0  0  0  0  0  0  0  0  0  0  0  0
    3.6791   13.9487   21.9954 C   0  0  0  0  0  0  0  0  0  0  0  0
    2.1945   14.1026   21.7930 C   0  0  0  0  0  0  0  0  0  0  0  0
    1.6444   14.2727   20.5806 C   0  0  0  0  0  0  0  0  0  0  0  0
    0.1635   14.4101   20.4672 C   0  0  0  0  0  0  0  0  0  0  0  0
   -0.3305   14.4783   19.3457 O   0  0  0  0  0  0  0  0  0  0  0  0
   -0.5886   14.4516   21.6240 N   0  0  0  0  0  0  0  0  0  0  0  0
    0.0217   14.2889   22.7481 C   0  0  0  0  0  0  0  0  0  0  0  0
    1.3587   14.0774   22.8850 N   0  0  0  0  0  0  0  0  0  0  0  0
    1.7474   14.0150   23.8152 H   0  0  0  0  0  0  0  0  0  0  0  0
   -0.8516   14.3329   24.2643 S   0  0  0  0  0  0  0  0  0  0  0  0
   -1.5775   12.6797   24.2811 C   0  0  0  0  0  0  0  0  0  0  0  0
 17 18  1  0  0  0
 18 11  1  0  0  0
 11 12  1  0  0  0
 12 13  2  0  0  0
 13 14  1  0  0  0
 14  1  1  0  0  0
  1  2  2  0  0  0
  2 19  1  0  0  0
 19 20  1  0  0  0
 20 21  1  0  0  0
 21 22  2  0  0  0
 21 23  1  0  0  0
 23 25  1  0  0  0
 25 26  1  0  0  0
 26 27  2  0  0  0
 27 28  1  0  0  0
 28 29  2  0  0  0
 28 30  1  0  0  0
 30 31  2  0  0  0
 31 34  1  0  0  0
 34 35  1  0  0  0
 31 32  1  0  0  0
  2  3  1  0  0  0
  3  4  2  0  0  0
  4  5  1  0  0  0
  5  6  2  0  0  0
  6  7  1  0  0  0
  7  8  2  0  0  0
  8  9  1  0  0  0
 14 15  2  0  0  0
 15 16  1  0  0  0
 16 11  2  0  0  0
  9  1  1  0  0  0
 32 26  1  0  0  0
  8  3  1  0  0  0
 23 24  1  0  0  0
 32 33  1  0  0  0
  9 10  1  0  0  0
M  END
> <minimizedAffinity>
-5.90665

$$$$
OCNT-2309866


 30 33  0  0  0  0  0  0  0  0999 V2000
    0.6070   20.8145   19.0442 O   0  0  0  0  0  0  0  0  0  0  0  0
    0.9973   19.6757   18.8169 C   0  0  0  0  0  0  0  0  0  0  0  0
    2.2950   19.2068   18.9185 N   0  0  0  0  0  0  0  0  0  0  0  0
    2.4762   18.2762   18.5673 H   0  0  0  0  0  0  0  0  0  0  0  0
    3.4260   19.9146   19.3768 C   0  0  0  0  0  0  0  0  0  0  0  0
    3.3651   21.1394   20.0419 C   0  0  0  0  0  0  0  0  0  0  0  0
    4.5371   21.7750   20.4712 C   0  0  0  0  0  0  0  0  0  0  0  0
    5.7839   21.1871   20.2542 C   0  0  0  0  0  0  0  0  0  0  0  0
    5.8509   19.9674   19.5795 C   0  0  0  0  0  0  0  0  0  0  0  0
    4.6799   19.3341   19.1481 C   0  0  0  0  0  0  0  0  0  0  0  0
    7.2562   22.0180   20.8162 S   0  0  0  0  0  0  0  0  0  0  0  0
    7.2965   21.4658   22.5630 C   0  0  0  0  0  0  0  0  0  0  0  0
    7.4778   19.9446   22.6793 C   0  0  0  0  0  0  0  0  0  0  0  0
    6.2868   19.2029   22.2373 N   0  0  0  0  0  0  0  0  0  0  0  0
    6.5675   17.7719   22.0865 C   0  0  0  0  0  0  0  0  0  0  0  0
    5.1800   17.1572   21.9963 C   0  0  0  0  0  0  0  0  0  0  0  0
    4.2695   18.1243   22.7438 C   0  0  0  0  0  0  0  0  0  0  0  0
    5.1753   19.2634   23.1898 C   0  0  0  0  0  0  0  0  0  0  0  0
    0.0002   18.6755   18.3365 C   0  0  0  0  0  0  0  0  0  0  0  0
   -1.0504   19.0274   17.4809 C   0  0  0  0  0  0  0  0  0  0  0  0
   -1.9536   18.0538   17.0520 C   0  0  0  0  0  0  0  0  0  0  0  0
   -1.8069   16.7280   17.4653 C   0  0  0  0  0  0  0  0  0  0  0  0
   -0.7486   16.3546   18.3071 C   0  0  0  0  0  0  0  0  0  0  0  0
    0.1552   17.3397   18.7340 C   0  0  0  0  0  0  0  0  0  0  0  0
   -0.5644   14.9176   18.7265 C   0  0  0  0  0  0  0  0  0  0  0  0
    0.2552   14.8112   19.9200 N   0  0  0  0  0  0  0  0  0  0  0  0
    0.1259   13.8840   20.9176 C   0  0  0  0  0  0  0  0  0  0  0  0
    1.1445   14.1670   21.7975 C   0  0  0  0  0  0  0  0  0  0  0  0
    1.8921   15.2274   21.3524 N   0  0  0  0  0  0  0  0  0  0  0  0
    1.3361   15.5913   20.2189 C   0  0  0  0  0  0  0  0  0  0  0  0
  1  2  2  0  0  0
  2  3  1  0  0  0
  3  5  1  0  0  0
  5  6  1  0  0  0
  6  7  2  0  0  0
  7  8  1  0  0  0
  8 11  1  0  0  0
 11 12  1  0  0  0
 12 13  1  0  0  0
 13 14  1  0  0  0
 14 15  1  0  0  0
 15 16  1  0  0  0
 16 17  1  0  0  0
 17 18  1  0  0  0
  8  9  2  0  0  0
  9 10  1  0  0  0
  2 19  1  0  0  0
 19 20  1  0  0  0
 20 21  2  0  0  0
 21 22  1  0  0  0
 22 23  2  0  0  0
 23 25  1  0  0  0
 25 26  1  0  0  0
 26 27  1  0  0  0
 27 28  2  0  0  0
 28 29  1  0  0  0
 29 30  2  0  0  0
 23 24  1  0  0  0
 10  5  2  0  0  0
 24 19  2  0  0  0
 18 14  1  0  0  0
 30 26  1  0  0  0
  3  4  1  0  0  0
M  END
> <minimizedAffinity>
-5.41280

$$$$
OCNT-2309871


 26 28  0  0  0  0  0  0  0  0999 V2000
    2.9207   16.5204   20.9459 C   0  0  0  0  0  0  0  0  0  0  0  0
    3.1701   15.6626   22.0256 C   0  0  0  0  0  0  0  0  0  0  0  0
    2.3122   14.5953   22.3028 C   0  0  0  0  0  0  0  0  0  0  0  0
    1.1829   14.3866   21.5077 C   0  0  0  0  0  0  0  0  0  0  0  0
    0.9400   15.2245   20.4166 C   0  0  0  0  0  0  0  0  0  0  0  0
   -0.4309   14.9831   19.3946 Cl  0  0  0  0  0  0  0  0  0  0  0  0
    1.8015   16.2924   20.1416 C   0  0  0  0  0  0  0  0  0  0  0  0
    3.5802   18.8464   20.2601 C   0  0  0  0  0  0  0  0  0  0  0  0
    2.4799   19.3075   19.9729 O   0  0  0  0  0  0  0  0  0  0  0  0
    3.8345   17.5711   20.7432 N   0  0  0  0  0  0  0  0  0  0  0  0
    4.8154   17.3704   20.9172 H   0  0  0  0  0  0  0  0  0  0  0  0
    6.1355   18.3237   21.8650 C   0  0  0  0  0  0  0  0  0  0  0  0
    5.5858   19.6413   21.5478 N   0  0  0  0  0  0  0  0  0  0  0  0
    6.2813   20.7215   22.0917 C   0  0  0  0  0  0  0  0  0  0  0  0
    7.1395   20.5849   22.9636 O   0  0  0  0  0  0  0  0  0  0  0  0
    5.8697   22.1084   21.6520 C   0  0  0  0  0  0  0  0  0  0  0  0
    5.4800   22.1635   20.1905 C   0  0  0  0  0  0  0  0  0  0  0  0
    4.3648   21.1681   19.9506 C   0  0  0  0  0  0  0  0  0  0  0  0
    4.8378   19.7482   20.2720 C   0  0  0  0  0  0  0  0  0  0  0  0
    0.3462   13.3184   21.7422 O   0  0  0  0  0  0  0  0  0  0  0  0
   -0.4159   13.3609   22.8879 C   0  0  0  0  0  0  0  0  0  0  0  0
   -1.1145   12.2057   23.2193 C   0  0  0  0  0  0  0  0  0  0  0  0
   -1.9061   12.2319   24.3530 C   0  0  0  0  0  0  0  0  0  0  0  0
   -2.0455   13.3168   25.1457 N   0  0  0  0  0  0  0  0  0  0  0  0
   -1.3776   14.4320   24.7776 C   0  0  0  0  0  0  0  0  0  0  0  0
   -0.5597   14.5077   23.6641 C   0  0  0  0  0  0  0  0  0  0  0  0
 12 13  1  0  0  0
 13 14  1  0  0  0
 14 15  2  0  0  0
 14 16  1  0  0  0
 16 17  1  0  0  0
 17 18  1  0  0  0
 18 19  1  0  0  0
 19  8  1  0  0  0
  8  9  2  0  0  0
  8 10  1  0  0  0
 10  1  1  0  0  0
  1  2  1  0  0  0
  2  3  2  0  0  0
  3  4  1  0  0  0
  4 20  1  0  0  0
 20 21  1  0  0  0
 21 22  2  0  0  0
 22 23  1  0  0  0
 23 24  2  0  0  0
 24 25  1  0  0  0
 25 26  2  0  0  0
  4  5  2  0  0  0
  5  6  1  0  0  0
  5  7  1  0  0  0
 19 13  1  0  0  0
  7  1  2  0  0  0
 26 21  1  0  0  0
 10 11  1  0  0  0
M  END
> <minimizedAffinity>
-6.97680

$$$$
OCNT-2309879


 24 27  0  0  0  0  0  0  0  0999 V2000
   -1.8220   18.6315   16.8823 C   0  0  0  0  0  0  0  0  0  0  0  0
   -0.5988   18.0009   17.5350 C   0  0  0  0  0  0  0  0  0  0  0  0
   -0.0626   18.8839   18.6596 C   0  0  0  0  0  0  0  0  0  0  0  0
    1.1243   18.2502   19.2396 N   0  0  0  0  0  0  0  0  0  0  0  0
    2.2445   19.0466   19.4626 C   0  0  0  0  0  0  0  0  0  0  0  0
    2.1384   20.2790   19.4994 O   0  0  0  0  0  0  0  0  0  0  0  0
    0.9265   16.8771   19.5648 C   0  0  0  0  0  0  0  0  0  0  0  0
    1.6599   16.2220   20.5573 C   0  0  0  0  0  0  0  0  0  0  0  0
    1.4132   14.8809   20.8713 C   0  0  0  0  0  0  0  0  0  0  0  0
    0.4051   14.1819   20.2154 C   0  0  0  0  0  0  0  0  0  0  0  0
   -0.3724   14.8313   19.2611 C   0  0  0  0  0  0  0  0  0  0  0  0
   -0.1218   16.1691   18.9424 C   0  0  0  0  0  0  0  0  0  0  0  0
   -0.9895   16.7108   18.0238 O   0  0  0  0  0  0  0  0  0  0  0  0
    3.6331   18.4059   19.4569 C   0  0  0  0  0  0  0  0  0  0  0  0
    4.4744   18.6855   20.6682 C   0  0  0  0  0  0  0  0  0  0  0  0
    4.6369   17.8351   21.7538 C   0  0  0  0  0  0  0  0  0  0  0  0
    5.4972   18.4208   22.6445 N   0  0  0  0  0  0  0  0  0  0  0  0
    5.9336   19.6145   22.1491 C   0  0  0  0  0  0  0  0  0  0  0  0
    6.8088   20.4173   22.7818 N   0  0  0  0  0  0  0  0  0  0  0  0
    7.0974   21.5349   22.0780 C   0  0  0  0  0  0  0  0  0  0  0  0
    6.5810   21.8622   20.8323 C   0  0  0  0  0  0  0  0  0  0  0  0
    5.6787   20.9887   20.2234 C   0  0  0  0  0  0  0  0  0  0  0  0
    5.3284   19.8136   20.9116 C   0  0  0  0  0  0  0  0  0  0  0  0
    5.8041   18.0412   23.5278 H   0  0  0  0  0  0  0  0  0  0  0  0
  1  2  1  0  0  0
  2  3  1  0  0  0
  3  4  1  0  0  0
  4  5  1  0  0  0
  5  6  2  0  0  0
  5 14  1  0  0  0
 14 15  1  0  0  0
 15 16  2  0  0  0
 16 17  1  0  0  0
 17 18  1  0  0  0
 18 19  1  0  0  0
 19 20  2  0  0  0
 20 21  1  0  0  0
 21 22  2  0  0  0
 22 23  1  0  0  0
  4  7  1  0  0  0
  7  8  2  0  0  0
  8  9  1  0  0  0
  9 10  2  0  0  0
 10 11  1  0  0  0
 11 12  2  0  0  0
 12 13  1  0  0  0
 13  2  1  0  0  0
 23 15  1  0  0  0
 12  7  1  0  0  0
 23 18  2  0  0  0
 17 24  1  0  0  0
M  END
> <minimizedAffinity>
-12.52580

$$$$
OCNT-2309883


 24 27  0  0  0  0  0  0  0  0999 V2000
    0.7993   16.0899   19.9181 C   0  0  0  0  0  0  0  0  0  0  0  0
   -0.5666   16.0185   19.6900 C   0  0  0  0  0  0  0  0  0  0  0  0
   -1.0018   17.2524   19.2922 N   0  0  0  0  0  0  0  0  0  0  0  0
    0.0512   18.1196   19.2408 C   0  0  0  0  0  0  0  0  0  0  0  0
   -0.0519   19.3948   18.8432 N   0  0  0  0  0  0  0  0  0  0  0  0
    1.1406   20.0036   18.8581 C   0  0  0  0  0  0  0  0  0  0  0  0
    2.3285   19.4953   19.2357 N   0  0  0  0  0  0  0  0  0  0  0  0
    2.3925   18.2092   19.6723 C   0  0  0  0  0  0  0  0  0  0  0  0
    1.1962   17.4509   19.6531 C   0  0  0  0  0  0  0  0  0  0  0  0
   -1.9461   17.5027   19.0384 H   0  0  0  0  0  0  0  0  0  0  0  0
    3.6174   17.6873   20.1038 N   0  0  0  0  0  0  0  0  0  0  0  0
    3.5023   16.8736   21.3223 C   0  0  0  0  0  0  0  0  0  0  0  0
    3.4996   17.7368   22.5853 C   0  0  0  0  0  0  0  0  0  0  0  0
    4.7218   18.6505   22.6375 C   0  0  0  0  0  0  0  0  0  0  0  0
    4.8071   19.5118   21.3693 C   0  0  0  0  0  0  0  0  0  0  0  0
    4.7492   18.6388   20.1058 C   0  0  0  0  0  0  0  0  0  0  0  0
    5.9938   20.3594   21.3631 N   0  0  0  0  0  0  0  0  0  0  0  0
    6.6803   20.7891   20.2616 C   0  0  0  0  0  0  0  0  0  0  0  0
    7.7239   21.5615   20.7259 C   0  0  0  0  0  0  0  0  0  0  0  0
    8.7671   22.2579   19.9421 C   0  0  0  0  0  0  0  0  0  0  0  0
    7.5742   21.5286   22.1298 C   0  0  0  0  0  0  0  0  0  0  0  0
    6.5258   20.8009   22.5201 N   0  0  0  0  0  0  0  0  0  0  0  0
    1.0905   14.1294   21.4670 C   0  0  0  0  0  0  0  0  0  0  0  0
    1.6664   14.9346   20.3112 C   0  0  0  0  0  0  0  0  0  0  0  0
 23 24  1  0  0  0
 24  1  1  0  0  0
  1  2  2  0  0  0
  2  3  1  0  0  0
  3  4  1  0  0  0
  4  5  2  0  0  0
  5  6  1  0  0  0
  6  7  2  0  0  0
  7  8  1  0  0  0
  8 11  1  0  0  0
 11 12  1  0  0  0
 12 13  1  0  0  0
 13 14  1  0  0  0
 14 15  1  0  0  0
 15 17  1  0  0  0
 17 18  1  0  0  0
 18 19  2  0  0  0
 19 20  1  0  0  0
 19 21  1  0  0  0
 21 22  2  0  0  0
 15 16  1  0  0  0
  8  9  2  0  0  0
  9  1  1  0  0  0
  9  4  1  0  0  0
 16 11  1  0  0  0
 22 17  1  0  0  0
  3 10  1  0  0  0
M  END
> <minimizedAffinity>
-6.27246

$$$$
OCNT-2309897


 27 30  0  0  0  0  0  0  0  0999 V2000
    3.2636   14.4332   22.0086 N   0  0  0  0  0  0  0  0  0  0  0  0
    3.6649   13.7997   22.7009 H   0  0  0  0  0  0  0  0  0  0  0  0
    5.3405   18.1213   22.0286 C   0  0  0  0  0  0  0  0  0  0  0  0
    4.1438   17.9538   22.7308 C   0  0  0  0  0  0  0  0  0  0  0  0
    3.4690   16.7285   22.6955 C   0  0  0  0  0  0  0  0  0  0  0  0
    3.9480   15.6489   21.9409 C   0  0  0  0  0  0  0  0  0  0  0  0
    5.1687   15.8134   21.2780 C   0  0  0  0  0  0  0  0  0  0  0  0
    5.8505   17.0360   21.3076 C   0  0  0  0  0  0  0  0  0  0  0  0
    6.0913   19.4269   22.0711 C   0  0  0  0  0  0  0  0  0  0  0  0
    7.2580   21.9500   21.2575 O   0  0  0  0  0  0  0  0  0  0  0  0
    6.1563   21.5936   20.8726 C   0  0  0  0  0  0  0  0  0  0  0  0
    5.3532   22.2727   19.7892 C   0  0  0  0  0  0  0  0  0  0  0  0
    3.9989   21.5815   19.8710 C   0  0  0  0  0  0  0  0  0  0  0  0
    4.3324   20.2101   20.4219 C   0  0  0  0  0  0  0  0  0  0  0  0
    5.4498   20.4735   21.2955 N   0  0  0  0  0  0  0  0  0  0  0  0
    1.8038   14.4292   22.1259 C   0  0  0  0  0  0  0  0  0  0  0  0
    1.0767   14.8858   20.8974 C   0  0  0  0  0  0  0  0  0  0  0  0
    1.2431   16.1190   20.3923 N   0  0  0  0  0  0  0  0  0  0  0  0
    0.4082   16.1099   19.3140 N   0  0  0  0  0  0  0  0  0  0  0  0
   -0.2615   14.9432   19.0966 N   0  0  0  0  0  0  0  0  0  0  0  0
    0.1598   14.1803   20.1057 C   0  0  0  0  0  0  0  0  0  0  0  0
    0.2518   17.2404   18.4704 C   0  0  0  0  0  0  0  0  0  0  0  0
    0.9315   18.4329   18.7586 C   0  0  0  0  0  0  0  0  0  0  0  0
    0.7728   19.5434   17.9269 C   0  0  0  0  0  0  0  0  0  0  0  0
   -0.0596   19.4682   16.8103 C   0  0  0  0  0  0  0  0  0  0  0  0
   -0.7369   18.2837   16.5200 C   0  0  0  0  0  0  0  0  0  0  0  0
   -0.5841   17.1688   17.3464 C   0  0  0  0  0  0  0  0  0  0  0  0
 10 11  2  0  0  0
 11 12  1  0  0  0
 12 13  1  0  0  0
 13 14  1  0  0  0
 14 15  1  0  0  0
 15  9  1  0  0  0
  9  3  1  0  0  0
  3  4  1  0  0  0
  4  5  2  0  0  0
  5  6  1  0  0  0
  6  1  1  0  0  0
  1 16  1  0  0  0
 16 17  1  0  0  0
 17 18  2  0  0  0
 18 19  1  0  0  0
 19 22  1  0  0  0
 22 23  2  0  0  0
 23 24  1  0  0  0
 24 25  2  0  0  0
 25 26  1  0  0  0
 26 27  2  0  0  0
 19 20  1  0  0  0
 20 21  2  0  0  0
  6  7  2  0  0  0
  7  8  1  0  0  0
 15 11  1  0  0  0
  8  3  2  0  0  0
 21 17  1  0  0  0
 27 22  1  0  0  0
  1  2  1  0  0  0
M  END
> <minimizedAffinity>
-8.13667

$$$$
OCNT-2309901


 30 33  0  0  0  0  0  0  0  0999 V2000
    0.4276   19.5032   19.2165 C   0  0  0  0  0  0  0  0  0  0  0  0
    0.6560   15.0016   20.5131 C   0  0  0  0  0  0  0  0  0  0  0  0
    0.0469   14.1402   19.6068 C   0  0  0  0  0  0  0  0  0  0  0  0
   -0.5253   14.6361   18.4325 C   0  0  0  0  0  0  0  0  0  0  0  0
   -0.4733   16.0201   18.2195 C   0  0  0  0  0  0  0  0  0  0  0  0
   -0.9523   16.7720   17.1722 N   0  0  0  0  0  0  0  0  0  0  0  0
   -0.6912   18.0986   17.3829 C   0  0  0  0  0  0  0  0  0  0  0  0
   -0.0339   18.2265   18.5910 C   0  0  0  0  0  0  0  0  0  0  0  0
    0.1121   16.9059   19.1260 C   0  0  0  0  0  0  0  0  0  0  0  0
    0.6816   16.3835   20.3050 C   0  0  0  0  0  0  0  0  0  0  0  0
   -1.4342   16.3934   16.3687 H   0  0  0  0  0  0  0  0  0  0  0  0
    1.1837   14.4880   21.6685 O   0  0  0  0  0  0  0  0  0  0  0  0
    0.1768   13.7679   22.3906 C   0  0  0  0  0  0  0  0  0  0  0  0
   -1.3094   13.9738   24.4306 C   0  0  0  0  0  0  0  0  0  0  0  0
   -0.0308   14.4368   23.7470 C   0  0  0  0  0  0  0  0  0  0  0  0
    1.6215   20.1148   18.4839 C   0  0  0  0  0  0  0  0  0  0  0  0
    2.8739   19.8207   19.1620 N   0  0  0  0  0  0  0  0  0  0  0  0
    3.5720   20.8139   19.8184 C   0  0  0  0  0  0  0  0  0  0  0  0
    3.2558   21.9977   19.7954 O   0  0  0  0  0  0  0  0  0  0  0  0
    3.0216   18.8698   19.4763 H   0  0  0  0  0  0  0  0  0  0  0  0
    4.7199   20.3801   20.6341 C   0  0  0  0  0  0  0  0  0  0  0  0
    5.7644   21.2725   20.8521 C   0  0  0  0  0  0  0  0  0  0  0  0
    6.8617   21.0110   21.6047 N   0  0  0  0  0  0  0  0  0  0  0  0
    6.9839   19.7960   22.1814 C   0  0  0  0  0  0  0  0  0  0  0  0
    5.9900   18.8448   21.9790 C   0  0  0  0  0  0  0  0  0  0  0  0
    4.8509   19.1003   21.2073 C   0  0  0  0  0  0  0  0  0  0  0  0
    4.0974   17.8872   21.1907 C   0  0  0  0  0  0  0  0  0  0  0  0
    4.7603   16.9602   21.9614 C   0  0  0  0  0  0  0  0  0  0  0  0
    5.9008   17.5489   22.4355 N   0  0  0  0  0  0  0  0  0  0  0  0
    6.5925   17.0939   23.0174 H   0  0  0  0  0  0  0  0  0  0  0  0
 14 15  1  0  0  0
 15 13  1  0  0  0
 13 12  1  0  0  0
 12  2  1  0  0  0
  2  3  2  0  0  0
  3  4  1  0  0  0
  4  5  2  0  0  0
  5  6  1  0  0  0
  6  7  1  0  0  0
  7  8  2  0  0  0
  8  1  1  0  0  0
  1 16  1  0  0  0
 16 17  1  0  0  0
 17 18  1  0  0  0
 18 19  2  0  0  0
 18 21  1  0  0  0
 21 22  1  0  0  0
 22 23  2  0  0  0
 23 24  1  0  0  0
 24 25  2  0  0  0
 25 26  1  0  0  0
 26 27  1  0  0  0
 27 28  2  0  0  0
 28 29  1  0  0  0
  8  9  1  0  0  0
  9 10  2  0  0  0
 10  2  1  0  0  0
  9  5  1  0  0  0
 26 21  2  0  0  0
 29 25  1  0  0  0
  6 11  1  0  0  0
 17 20  1  0  0  0
 29 30  1  0  0  0
M  END
> <minimizedAffinity>
-9.95598

$$$$
OCNT-2309918


 28 30  0  0  0  0  0  0  0  0999 V2000
    3.1942   16.7318   21.9246 N   0  0  0  0  0  0  0  0  0  0  0  0
    2.3849   16.1826   20.9524 C   0  0  0  0  0  0  0  0  0  0  0  0
    2.4620   16.4451   19.7555 O   0  0  0  0  0  0  0  0  0  0  0  0
    1.4644   15.2493   21.4485 N   0  0  0  0  0  0  0  0  0  0  0  0
    0.6172   14.5906   20.4567 C   0  0  0  0  0  0  0  0  0  0  0  0
    0.1582   13.2179   20.9400 C   0  0  0  0  0  0  0  0  0  0  0  0
   -0.4383   13.2838   22.3219 C   0  0  0  0  0  0  0  0  0  0  0  0
   -1.3026   12.2693   22.7611 C   0  0  0  0  0  0  0  0  0  0  0  0
   -1.8297   12.3158   24.0470 C   0  0  0  0  0  0  0  0  0  0  0  0
   -2.6582   11.3443   24.4533 F   0  0  0  0  0  0  0  0  0  0  0  0
   -1.4997   13.3574   24.9023 C   0  0  0  0  0  0  0  0  0  0  0  0
   -2.0093   13.4026   26.1407 F   0  0  0  0  0  0  0  0  0  0  0  0
   -0.6338   14.3643   24.4859 C   0  0  0  0  0  0  0  0  0  0  0  0
   -0.0847   14.3331   23.1932 C   0  0  0  0  0  0  0  0  0  0  0  0
    0.8491   15.4430   22.7632 C   0  0  0  0  0  0  0  0  0  0  0  0
    3.3664   16.1310   22.7162 H   0  0  0  0  0  0  0  0  0  0  0  0
    5.7478   20.0244   21.3469 C   0  0  0  0  0  0  0  0  0  0  0  0
    4.5819   19.8868   20.5918 C   0  0  0  0  0  0  0  0  0  0  0  0
    3.7499   18.7846   20.8063 C   0  0  0  0  0  0  0  0  0  0  0  0
    4.0737   17.8228   21.7731 C   0  0  0  0  0  0  0  0  0  0  0  0
    5.2581   17.9629   22.5039 C   0  0  0  0  0  0  0  0  0  0  0  0
    6.0985   19.0605   22.2929 C   0  0  0  0  0  0  0  0  0  0  0  0
    5.8084   22.4308   20.1759 N   0  0  0  0  0  0  0  0  0  0  0  0
    6.8098   21.4175   21.0738 S   0  0  0  0  0  0  0  0  0  0  0  0
    7.8993   21.0025   20.2228 O   0  0  0  0  0  0  0  0  0  0  0  0
    7.0198   22.0883   22.3356 O   0  0  0  0  0  0  0  0  0  0  0  0
    5.6311   23.2802   20.7154 H   0  0  0  0  0  0  0  0  0  0  0  0
    4.9418   21.9825   19.8806 H   0  0  0  0  0  0  0  0  0  0  0  0
 23 24  1  0  0  0
 24 25  2  0  0  0
 24 26  2  0  0  0
 24 17  1  0  0  0
 17 18  1  0  0  0
 18 19  2  0  0  0
 19 20  1  0  0  0
 20  1  1  0  0  0
  1  2  1  0  0  0
  2  3  2  0  0  0
  2  4  1  0  0  0
  4  5  1  0  0  0
  5  6  1  0  0  0
  6  7  1  0  0  0
  7  8  1  0  0  0
  8  9  2  0  0  0
  9 10  1  0  0  0
  9 11  1  0  0  0
 11 12  1  0  0  0
 11 13  2  0  0  0
 13 14  1  0  0  0
 14 15  1  0  0  0
 20 21  2  0  0  0
 21 22  1  0  0  0
 22 17  2  0  0  0
 15  4  1  0  0  0
 14  7  2  0  0  0
 23 27  1  0  0  0
 23 28  1  0  0  0
  1 16  1  0  0  0
M  END
> <minimizedAffinity>
-0.95341

$$$$
OCNT-2309929


 25 27  0  0  0  0  0  0  0  0999 V2000
    2.3859   19.2622   19.3155 N   0  0  0  0  0  0  0  0  0  0  0  0
    1.1225   19.8204   19.1403 C   0  0  0  0  0  0  0  0  0  0  0  0
    0.7672   20.9333   19.5296 O   0  0  0  0  0  0  0  0  0  0  0  0
    2.5262   18.2996   19.0126 H   0  0  0  0  0  0  0  0  0  0  0  0
    4.3006   18.9954   20.7571 C   0  0  0  0  0  0  0  0  0  0  0  0
    5.4516   19.4938   21.3787 C   0  0  0  0  0  0  0  0  0  0  0  0
    5.8302   20.8192   21.1580 C   0  0  0  0  0  0  0  0  0  0  0  0
    7.4015   21.4791   21.9768 Br  0  0  0  0  0  0  0  0  0  0  0  0
    5.0725   21.6543   20.3303 C   0  0  0  0  0  0  0  0  0  0  0  0
    3.9205   21.1614   19.7124 C   0  0  0  0  0  0  0  0  0  0  0  0
    3.5296   19.8342   19.9158 C   0  0  0  0  0  0  0  0  0  0  0  0
    4.5834   16.8434   21.7339 C   0  0  0  0  0  0  0  0  0  0  0  0
    3.8357   17.7073   20.8902 O   0  0  0  0  0  0  0  0  0  0  0  0
    0.1553   18.8554   18.4314 C   0  0  0  0  0  0  0  0  0  0  0  0
    0.3366   18.8808   16.9132 C   0  0  0  0  0  0  0  0  0  0  0  0
    0.2864   17.4553   18.9868 C   0  0  0  0  0  0  0  0  0  0  0  0
    0.9141   17.1033   20.1683 C   0  0  0  0  0  0  0  0  0  0  0  0
    0.8351   15.7354   20.3091 N   0  0  0  0  0  0  0  0  0  0  0  0
    1.3988   14.9948   21.4150 C   0  0  0  0  0  0  0  0  0  0  0  0
    0.1390   15.1799   19.2552 C   0  0  0  0  0  0  0  0  0  0  0  0
   -0.2141   13.8460   18.9795 C   0  0  0  0  0  0  0  0  0  0  0  0
   -0.9309   13.5854   17.8109 C   0  0  0  0  0  0  0  0  0  0  0  0
   -1.2775   14.6112   16.9383 C   0  0  0  0  0  0  0  0  0  0  0  0
   -0.9176   15.9305   17.2172 C   0  0  0  0  0  0  0  0  0  0  0  0
   -0.2063   16.2333   18.4009 C   0  0  0  0  0  0  0  0  0  0  0  0
 12 13  1  0  0  0
 13  5  1  0  0  0
  5  6  1  0  0  0
  6  7  2  0  0  0
  7  8  1  0  0  0
  7  9  1  0  0  0
  9 10  2  0  0  0
 10 11  1  0  0  0
 11  1  1  0  0  0
  1  2  1  0  0  0
  2  3  2  0  0  0
  2 14  1  0  0  0
 14 15  1  0  0  0
 14 16  1  0  0  0
 16 17  2  0  0  0
 17 18  1  0  0  0
 18 19  1  0  0  0
 18 20  1  0  0  0
 20 21  2  0  0  0
 21 22  1  0  0  0
 22 23  2  0  0  0
 23 24  1  0  0  0
 24 25  2  0  0  0
 11  5  2  0  0  0
 25 16  1  0  0  0
 25 20  1  0  0  0
  1  4  1  0  0  0
M  END
> <minimizedAffinity>
-8.92938

$$$$
OCNT-2309931


 36 40  0  0  0  0  0  0  0  0999 V2000
    4.5115   18.1887   22.4139 N   0  0  0  0  0  0  0  0  0  0  0  0
    4.1287   17.0199   21.7906 C   0  0  0  0  0  0  0  0  0  0  0  0
    4.4353   16.6605   20.6623 O   0  0  0  0  0  0  0  0  0  0  0  0
    3.3604   16.2494   22.6345 N   0  0  0  0  0  0  0  0  0  0  0  0
    4.6983   18.0925   23.4003 H   0  0  0  0  0  0  0  0  0  0  0  0
    2.8223   16.7651   23.3149 H   0  0  0  0  0  0  0  0  0  0  0  0
    8.0451   21.3101   21.2020 C   0  0  0  0  0  0  0  0  0  0  0  0
    6.7919   20.5967   21.2522 N   0  0  0  0  0  0  0  0  0  0  0  0
    6.4389   19.6240   22.1350 C   0  0  0  0  0  0  0  0  0  0  0  0
    5.1785   19.2164   21.7636 C   0  0  0  0  0  0  0  0  0  0  0  0
    4.8100   20.0842   20.6841 C   0  0  0  0  0  0  0  0  0  0  0  0
    5.8370   20.8956   20.3636 N   0  0  0  0  0  0  0  0  0  0  0  0
    3.5270   20.2484   20.0032 C   0  0  0  0  0  0  0  0  0  0  0  0
    2.7813   21.4168   20.1758 C   0  0  0  0  0  0  0  0  0  0  0  0
    1.5455   21.5039   19.5596 C   0  0  0  0  0  0  0  0  0  0  0  0
    1.0061   20.5199   18.8041 N   0  0  0  0  0  0  0  0  0  0  0  0
    1.7394   19.3912   18.6685 C   0  0  0  0  0  0  0  0  0  0  0  0
    2.9889   19.2078   19.2372 C   0  0  0  0  0  0  0  0  0  0  0  0
    2.8069   15.0044   22.1509 C   0  0  0  0  0  0  0  0  0  0  0  0
    1.6032   15.3113   21.3353 C   0  0  0  0  0  0  0  0  0  0  0  0
    1.5532   16.0306   20.1547 C   0  0  0  0  0  0  0  0  0  0  0  0
    0.2467   16.0246   19.7204 N   0  0  0  0  0  0  0  0  0  0  0  0
   -0.5412   15.3060   20.5590 N   0  0  0  0  0  0  0  0  0  0  0  0
    0.2565   14.9044   21.5568 C   0  0  0  0  0  0  0  0  0  0  0  0
   -0.2949   16.6368   18.5535 C   0  0  0  0  0  0  0  0  0  0  0  0
   -1.1362   17.7543   18.6894 C   0  0  0  0  0  0  0  0  0  0  0  0
   -1.6820   18.3694   17.5604 C   0  0  0  0  0  0  0  0  0  0  0  0
   -1.3960   17.8767   16.2946 C   0  0  0  0  0  0  0  0  0  0  0  0
   -0.5638   16.7658   16.1492 C   0  0  0  0  0  0  0  0  0  0  0  0
   -0.0098   16.1457   17.2736 C   0  0  0  0  0  0  0  0  0  0  0  0
   -0.2884   14.1131   22.6548 C   0  0  0  0  0  0  0  0  0  0  0  0
   -0.3796   12.7246   22.5642 C   0  0  0  0  0  0  0  0  0  0  0  0
   -0.9073   12.0317   23.6391 C   0  0  0  0  0  0  0  0  0  0  0  0
   -1.3419   12.6233   24.7741 N   0  0  0  0  0  0  0  0  0  0  0  0
   -1.2211   13.9653   24.8483 C   0  0  0  0  0  0  0  0  0  0  0  0
   -0.7071   14.7454   23.8284 C   0  0  0  0  0  0  0  0  0  0  0  0
  7  8  1  0  0  0
  8  9  1  0  0  0
  9 10  2  0  0  0
 10  1  1  0  0  0
  1  2  1  0  0  0
  2  3  2  0  0  0
  2  4  1  0  0  0
  4 19  1  0  0  0
 19 20  1  0  0  0
 20 21  2  0  0  0
 21 22  1  0  0  0
 22 25  1  0  0  0
 25 26  2  0  0  0
 26 27  1  0  0  0
 27 28  2  0  0  0
 28 29  1  0  0  0
 29 30  2  0  0  0
 22 23  1  0  0  0
 23 24  2  0  0  0
 24 31  1  0  0  0
 31 32  2  0  0  0
 32 33  1  0  0  0
 33 34  2  0  0  0
 34 35  1  0  0  0
 35 36  2  0  0  0
 10 11  1  0  0  0
 11 13  1  0  0  0
 13 14  2  0  0  0
 14 15  1  0  0  0
 15 16  2  0  0  0
 16 17  1  0  0  0
 17 18  2  0  0  0
 11 12  2  0  0  0
 12  8  1  0  0  0
 24 20  1  0  0  0
 36 31  1  0  0  0
 18 13  1  0  0  0
 30 25  1  0  0  0
  1  5  1  0  0  0
  4  6  1  0  0  0
M  END
> <minimizedAffinity>
-3.32865

$$$$
OCNT-2309935


 25 28  0  0  0  0  0  0  0  0999 V2000
   -0.2510   17.7537   18.1676 C   0  0  0  0  0  0  0  0  0  0  0  0
   -0.2578   16.4056   18.4976 C   0  0  0  0  0  0  0  0  0  0  0  0
   -0.9310   15.2222   17.8859 C   0  0  0  0  0  0  0  0  0  0  0  0
   -0.3322   13.9019   18.3822 C   0  0  0  0  0  0  0  0  0  0  0  0
   -0.1416   13.9191   19.9000 C   0  0  0  0  0  0  0  0  0  0  0  0
    0.8040   15.0461   20.3131 C   0  0  0  0  0  0  0  0  0  0  0  0
    0.5025   16.2877   19.6255 N   0  0  0  0  0  0  0  0  0  0  0  0
    1.0411   17.4407   20.0424 N   0  0  0  0  0  0  0  0  0  0  0  0
    0.5588   18.3534   19.1818 C   0  0  0  0  0  0  0  0  0  0  0  0
   -0.9455   18.3636   17.0431 C   0  0  0  0  0  0  0  0  0  0  0  0
   -0.3694   18.8096   16.0567 O   0  0  0  0  0  0  0  0  0  0  0  0
   -2.9824   19.2175   16.2587 C   0  0  0  0  0  0  0  0  0  0  0  0
   -2.2960   18.4196   17.2222 O   0  0  0  0  0  0  0  0  0  0  0  0
    0.8956   19.8037   19.3697 C   0  0  0  0  0  0  0  0  0  0  0  0
    2.0957   20.1442   18.6658 O   0  0  0  0  0  0  0  0  0  0  0  0
    3.1676   20.5320   19.4240 C   0  0  0  0  0  0  0  0  0  0  0  0
    3.4293   21.8505   19.7933 C   0  0  0  0  0  0  0  0  0  0  0  0
    4.5617   22.1589   20.5602 C   0  0  0  0  0  0  0  0  0  0  0  0
    5.4749   21.1756   20.9791 C   0  0  0  0  0  0  0  0  0  0  0  0
    5.1992   19.8560   20.5834 C   0  0  0  0  0  0  0  0  0  0  0  0
    4.0705   19.5374   19.8168 C   0  0  0  0  0  0  0  0  0  0  0  0
    3.8212   17.8782   19.3930 Cl  0  0  0  0  0  0  0  0  0  0  0  0
    6.6837   21.5711   21.8076 C   0  0  0  0  0  0  0  0  0  0  0  0
    7.6951   20.5466   22.2619 C   0  0  0  0  0  0  0  0  0  0  0  0
    8.0726   21.5567   21.2162 C   0  0  0  0  0  0  0  0  0  0  0  0
 12 13  1  0  0  0
 13 10  1  0  0  0
 10 11  2  0  0  0
 10  1  1  0  0  0
  1  2  2  0  0  0
  2  3  1  0  0  0
  3  4  1  0  0  0
  4  5  1  0  0  0
  5  6  1  0  0  0
  6  7  1  0  0  0
  7  8  1  0  0  0
  8  9  2  0  0  0
  9 14  1  0  0  0
 14 15  1  0  0  0
 15 16  1  0  0  0
 16 17  1  0  0  0
 17 18  2  0  0  0
 18 19  1  0  0  0
 19 23  1  0  0  0
 23 24  1  0  0  0
 24 25  1  0  0  0
 19 20  2  0  0  0
 20 21  1  0  0  0
 21 22  1  0  0  0
  9  1  1  0  0  0
 21 16  2  0  0  0
  7  2  1  0  0  0
 25 23  1  0  0  0
M  END
> <minimizedAffinity>
-7.79605

$$$$
OCNT-2309940


 23 25  0  0  0  0  0  0  0  0999 V2000
    0.2362   17.3677   18.7532 C   0  0  0  0  0  0  0  0  0  0  0  0
    0.8906   18.5722   18.9295 C   0  0  0  0  0  0  0  0  0  0  0  0
    1.8366   18.4084   19.9043 N   0  0  0  0  0  0  0  0  0  0  0  0
    1.8262   17.1137   20.3658 C   0  0  0  0  0  0  0  0  0  0  0  0
    0.8261   16.4366   19.6692 C   0  0  0  0  0  0  0  0  0  0  0  0
    0.5990   15.0788   19.9749 C   0  0  0  0  0  0  0  0  0  0  0  0
    1.3654   14.4578   20.9689 C   0  0  0  0  0  0  0  0  0  0  0  0
    2.3587   15.1626   21.6468 C   0  0  0  0  0  0  0  0  0  0  0  0
    2.6233   16.5008   21.3390 C   0  0  0  0  0  0  0  0  0  0  0  0
    2.4599   19.1233   20.2535 H   0  0  0  0  0  0  0  0  0  0  0  0
   -0.8772   17.0960   17.7912 C   0  0  0  0  0  0  0  0  0  0  0  0
   -2.2279   19.0036   16.9311 N   0  0  0  0  0  0  0  0  0  0  0  0
   -1.0189   18.1997   16.7351 C   0  0  0  0  0  0  0  0  0  0  0  0
   -3.0473   18.3981   16.8973 H   0  0  0  0  0  0  0  0  0  0  0  0
   -2.2169   19.4136   17.8641 H   0  0  0  0  0  0  0  0  0  0  0  0
    3.5763   17.2386   21.9898 O   0  0  0  0  0  0  0  0  0  0  0  0
    4.7580   17.4499   21.2033 C   0  0  0  0  0  0  0  0  0  0  0  0
    5.2111   18.8922   21.2313 C   0  0  0  0  0  0  0  0  0  0  0  0
    6.2633   19.2804   22.0738 C   0  0  0  0  0  0  0  0  0  0  0  0
    6.7084   20.6036   22.0898 C   0  0  0  0  0  0  0  0  0  0  0  0
    6.1139   21.5503   21.2581 C   0  0  0  0  0  0  0  0  0  0  0  0
    5.0767   21.1746   20.4071 C   0  0  0  0  0  0  0  0  0  0  0  0
    4.6309   19.8520   20.3895 C   0  0  0  0  0  0  0  0  0  0  0  0
 12 13  1  0  0  0
 13 11  1  0  0  0
 11  1  1  0  0  0
  1  2  2  0  0  0
  2  3  1  0  0  0
  3  4  1  0  0  0
  4  5  1  0  0  0
  5  6  2  0  0  0
  6  7  1  0  0  0
  7  8  2  0  0  0
  8  9  1  0  0  0
  9 16  1  0  0  0
 16 17  1  0  0  0
 17 18  1  0  0  0
 18 19  2  0  0  0
 19 20  1  0  0  0
 20 21  2  0  0  0
 21 22  1  0  0  0
 22 23  2  0  0  0
  5  1  1  0  0  0
 23 18  1  0  0  0
  9  4  2  0  0  0
 12 14  1  0  0  0
 12 15  1  0  0  0
  3 10  1  0  0  0
M  END
> <minimizedAffinity>
-10.82293

$$$$
OCNT-2309950


 26 28  0  0  0  0  0  0  0  0999 V2000
    3.7381   15.1571   22.0023 C   0  0  0  0  0  0  0  0  0  0  0  0
    5.9192   16.9271   21.9992 O   0  0  0  0  0  0  0  0  0  0  0  0
    4.8484   17.3127   21.5451 C   0  0  0  0  0  0  0  0  0  0  0  0
    3.7200   16.5207   21.4980 N   0  0  0  0  0  0  0  0  0  0  0  0
    2.8170   16.9387   21.3165 H   0  0  0  0  0  0  0  0  0  0  0  0
    4.7045   18.7096   21.0516 C   0  0  0  0  0  0  0  0  0  0  0  0
    3.9202   19.0265   19.9308 C   0  0  0  0  0  0  0  0  0  0  0  0
    3.8175   20.3527   19.5004 C   0  0  0  0  0  0  0  0  0  0  0  0
    4.5116   21.3512   20.1778 C   0  0  0  0  0  0  0  0  0  0  0  0
    4.4139   22.6176   19.7518 F   0  0  0  0  0  0  0  0  0  0  0  0
    5.3079   21.0362   21.2733 C   0  0  0  0  0  0  0  0  0  0  0  0
    5.9907   21.9988   21.9081 F   0  0  0  0  0  0  0  0  0  0  0  0
    5.4126   19.7223   21.7159 C   0  0  0  0  0  0  0  0  0  0  0  0
    2.3302   14.5848   22.1689 C   0  0  0  0  0  0  0  0  0  0  0  0
    1.4525   14.9802   21.0403 C   0  0  0  0  0  0  0  0  0  0  0  0
    1.3870   16.1488   20.4411 N   0  0  0  0  0  0  0  0  0  0  0  0
    0.3983   15.9816   19.4908 C   0  0  0  0  0  0  0  0  0  0  0  0
   -0.1362   14.7488   19.4851 N   0  0  0  0  0  0  0  0  0  0  0  0
    0.5491   14.1376   20.4619 N   0  0  0  0  0  0  0  0  0  0  0  0
    0.3480   13.1678   20.6802 H   0  0  0  0  0  0  0  0  0  0  0  0
   -0.0168   17.0635   18.6026 C   0  0  0  0  0  0  0  0  0  0  0  0
   -1.3023   17.0859   18.0406 C   0  0  0  0  0  0  0  0  0  0  0  0
   -1.6964   18.1362   17.2068 C   0  0  0  0  0  0  0  0  0  0  0  0
   -0.8079   19.1750   16.9244 C   0  0  0  0  0  0  0  0  0  0  0  0
    0.4745   19.1625   17.4711 C   0  0  0  0  0  0  0  0  0  0  0  0
    0.8676   18.1110   18.3044 C   0  0  0  0  0  0  0  0  0  0  0  0
  2  3  2  0  0  0
  3  4  1  0  0  0
  4  1  1  0  0  0
  1 14  1  0  0  0
 14 15  1  0  0  0
 15 16  2  0  0  0
 16 17  1  0  0  0
 17 21  1  0  0  0
 21 22  2  0  0  0
 22 23  1  0  0  0
 23 24  2  0  0  0
 24 25  1  0  0  0
 25 26  2  0  0  0
 17 18  2  0  0  0
 18 19  1  0  0  0
  3  6  1  0  0  0
  6  7  1  0  0  0
  7  8  2  0  0  0
  8  9  1  0  0  0
  9 10  1  0  0  0
  9 11  2  0  0  0
 11 12  1  0  0  0
 11 13  1  0  0  0
 19 15  1  0  0  0
 13  6  2  0  0  0
 26 21  1  0  0  0
  4  5  1  0  0  0
 19 20  1  0  0  0
M  END
> <minimizedAffinity>
-11.00233

$$$$
OCNT-2309967


 30 32  0  0  0  0  0  0  0  0999 V2000
    0.9263   14.8472   21.2719 C   0  0  0  0  0  0  0  0  0  0  0  0
    0.9717   13.4954   21.9801 C   0  0  0  0  0  0  0  0  0  0  0  0
    3.9866   17.2951   21.3568 C   0  0  0  0  0  0  0  0  0  0  0  0
    4.4733   16.1452   21.7823 N   0  0  0  0  0  0  0  0  0  0  0  0
    3.4994   15.1587   21.7965 C   0  0  0  0  0  0  0  0  0  0  0  0
    3.9215   13.8005   22.2287 C   0  0  0  0  0  0  0  0  0  0  0  0
    2.2404   15.5761   21.3894 C   0  0  0  0  0  0  0  0  0  0  0  0
    2.3094   17.2477   20.9852 S   0  0  0  0  0  0  0  0  0  0  0  0
    6.4123   20.8521   21.0807 C   0  0  0  0  0  0  0  0  0  0  0  0
    6.7104   19.8465   21.9958 C   0  0  0  0  0  0  0  0  0  0  0  0
    5.9072   18.6998   22.0658 C   0  0  0  0  0  0  0  0  0  0  0  0
    4.7898   18.5294   21.2299 C   0  0  0  0  0  0  0  0  0  0  0  0
    4.5071   19.5504   20.3109 C   0  0  0  0  0  0  0  0  0  0  0  0
    5.3093   20.6966   20.2407 C   0  0  0  0  0  0  0  0  0  0  0  0
    8.3136   21.9387   20.1593 C   0  0  0  0  0  0  0  0  0  0  0  0
    7.1064   22.0166   20.9066 O   0  0  0  0  0  0  0  0  0  0  0  0
    0.5796   14.6756   19.8709 N   0  0  0  0  0  0  0  0  0  0  0  0
   -0.1640   15.6216   19.2132 C   0  0  0  0  0  0  0  0  0  0  0  0
   -0.6623   16.6022   19.7461 O   0  0  0  0  0  0  0  0  0  0  0  0
   -0.2770   15.3217   17.8814 N   0  0  0  0  0  0  0  0  0  0  0  0
    1.2288   14.1679   19.2934 H   0  0  0  0  0  0  0  0  0  0  0  0
   -0.2092   14.3445   17.6443 H   0  0  0  0  0  0  0  0  0  0  0  0
   -1.1000   16.1280   17.0084 C   0  0  0  0  0  0  0  0  0  0  0  0
   -0.6203   17.5343   17.0738 C   0  0  0  0  0  0  0  0  0  0  0  0
    0.6560   17.9807   17.3541 C   0  0  0  0  0  0  0  0  0  0  0  0
    0.6072   19.3411   17.3051 N   0  0  0  0  0  0  0  0  0  0  0  0
   -0.6048   19.8211   17.0000 N   0  0  0  0  0  0  0  0  0  0  0  0
   -1.3671   18.7283   16.8634 C   0  0  0  0  0  0  0  0  0  0  0  0
   -2.8049   18.8635   16.5153 C   0  0  0  0  0  0  0  0  0  0  0  0
    1.3580   20.0044   17.4660 H   0  0  0  0  0  0  0  0  0  0  0  0
 15 16  1  0  0  0
 16  9  1  0  0  0
  9 10  1  0  0  0
 10 11  2  0  0  0
 11 12  1  0  0  0
 12  3  1  0  0  0
  3  4  2  0  0  0
  4  5  1  0  0  0
  5  6  1  0  0  0
  5  7  2  0  0  0
  7  1  1  0  0  0
  1  2  1  0  0  0
  1 17  1  0  0  0
 17 18  1  0  0  0
 18 19  2  0  0  0
 18 20  1  0  0  0
 20 23  1  0  0  0
 23 24  1  0  0  0
 24 25  2  0  0  0
 25 26  1  0  0  0
 26 27  1  0  0  0
 27 28  2  0  0  0
 28 29  1  0  0  0
  7  8  1  0  0  0
 12 13  2  0  0  0
 13 14  1  0  0  0
 14  9  2  0  0  0
  8  3  1  0  0  0
 28 24  1  0  0  0
 17 21  1  0  0  0
 20 22  1  0  0  0
 26 30  1  0  0  0
M  END
> <minimizedAffinity>
-7.01485

$$$$
OCNT-2309977


 24 26  0  0  0  0  0  0  0  0999 V2000
    1.7123   18.7545   19.4211 S   0  0  0  0  0  0  0  0  0  0  0  0
    0.6014   19.6603   19.6054 O   0  0  0  0  0  0  0  0  0  0  0  0
    2.6007   18.8551   18.2860 O   0  0  0  0  0  0  0  0  0  0  0  0
    0.8947   14.9548   20.5762 C   0  0  0  0  0  0  0  0  0  0  0  0
    0.0551   14.5157   19.5420 C   0  0  0  0  0  0  0  0  0  0  0  0
   -0.2770   15.3723   18.4890 C   0  0  0  0  0  0  0  0  0  0  0  0
   -1.2983   14.8066   17.2250 Cl  0  0  0  0  0  0  0  0  0  0  0  0
    0.2141   16.6732   18.4471 C   0  0  0  0  0  0  0  0  0  0  0  0
    1.0423   17.1150   19.4798 C   0  0  0  0  0  0  0  0  0  0  0  0
    1.3780   16.2707   20.5437 C   0  0  0  0  0  0  0  0  0  0  0  0
    1.2531   14.0379   21.7201 C   0  0  0  0  0  0  0  0  0  0  0  0
    3.5962   14.1379   22.0815 C   0  0  0  0  0  0  0  0  0  0  0  0
    2.3136   14.5820   22.5068 O   0  0  0  0  0  0  0  0  0  0  0  0
    2.6250   18.8494   20.8207 N   0  0  0  0  0  0  0  0  0  0  0  0
    2.1045   19.3014   21.5731 H   0  0  0  0  0  0  0  0  0  0  0  0
    4.0964   18.9704   20.8547 C   0  0  0  0  0  0  0  0  0  0  0  0
    4.6893   17.5408   20.7394 C   0  0  0  0  0  0  0  0  0  0  0  0
    5.8213   17.4709   21.7518 C   0  0  0  0  0  0  0  0  0  0  0  0
    5.3086   18.3296   22.8916 C   0  0  0  0  0  0  0  0  0  0  0  0
    4.5973   19.5069   22.2163 C   0  0  0  0  0  0  0  0  0  0  0  0
    5.5403   20.6585   21.8474 C   0  0  0  0  0  0  0  0  0  0  0  0
    5.9460   20.4032   20.4620 N   0  0  0  0  0  0  0  0  0  0  0  0
    4.7173   19.9249   19.8185 C   0  0  0  0  0  0  0  0  0  0  0  0
    6.2638   21.2682   20.0253 H   0  0  0  0  0  0  0  0  0  0  0  0
 12 13  1  0  0  0
 13 11  1  0  0  0
 11  4  1  0  0  0
  4  5  1  0  0  0
  5  6  2  0  0  0
  6  7  1  0  0  0
  6  8  1  0  0  0
  8  9  2  0  0  0
  9  1  1  0  0  0
  1  2  2  0  0  0
  1  3  2  0  0  0
  1 14  1  0  0  0
 16 14  1  0  0  0
 16 17  1  0  0  0
 17 18  1  0  0  0
 18 19  1  0  0  0
 19 20  1  0  0  0
 20 21  1  0  0  0
 21 22  1  0  0  0
 22 23  1  0  0  0
  9 10  1  0  0  0
 10  4  2  0  0  0
 20 16  1  0  0  0
 23 16  1  0  0  0
 14 15  1  0  0  0
 22 24  1  0  0  0
M  END
> <minimizedAffinity>
-8.04303

$$$$
OCNT-2309981


 22 24  0  0  0  0  0  0  0  0999 V2000
   -0.0289   18.2036   18.7292 C   0  0  0  0  0  0  0  0  0  0  0  0
    0.4211   19.4617   18.3232 C   0  0  0  0  0  0  0  0  0  0  0  0
    1.6939   19.8979   18.6808 C   0  0  0  0  0  0  0  0  0  0  0  0
    2.5316   19.0808   19.4410 C   0  0  0  0  0  0  0  0  0  0  0  0
    2.1180   17.8064   19.8546 C   0  0  0  0  0  0  0  0  0  0  0  0
    0.8199   17.3763   19.5027 C   0  0  0  0  0  0  0  0  0  0  0  0
    0.3676   16.0580   19.9550 C   0  0  0  0  0  0  0  0  0  0  0  0
    1.1451   15.3005   20.7299 C   0  0  0  0  0  0  0  0  0  0  0  0
    2.4903   15.7401   21.1552 C   0  0  0  0  0  0  0  0  0  0  0  0
    3.1054   15.0234   21.9450 O   0  0  0  0  0  0  0  0  0  0  0  0
    2.9634   16.9453   20.6364 N   0  0  0  0  0  0  0  0  0  0  0  0
   -1.9295   18.2042   17.2746 C   0  0  0  0  0  0  0  0  0  0  0  0
   -1.2721   17.7006   18.4300 O   0  0  0  0  0  0  0  0  0  0  0  0
    4.3363   17.3198   20.9715 C   0  0  0  0  0  0  0  0  0  0  0  0
    4.3483   18.5142   21.9317 C   0  0  0  0  0  0  0  0  0  0  0  0
    5.2393   18.2457   23.1730 C   0  0  0  0  0  0  0  0  0  0  0  0
    6.3558   19.0425   22.4792 C   0  0  0  0  0  0  0  0  0  0  0  0
    5.2457   19.7990   21.6776 C   0  0  0  0  0  0  0  0  0  0  0  0
    5.4786   20.0791   20.2794 O   0  0  0  0  0  0  0  0  0  0  0  0
    5.1506   21.3650   19.7794 C   0  0  0  0  0  0  0  0  0  0  0  0
    4.7092   20.9631   22.3678 O   0  0  0  0  0  0  0  0  0  0  0  0
    5.6217   21.9906   22.7136 C   0  0  0  0  0  0  0  0  0  0  0  0
 12 13  1  0  0  0
 13  1  1  0  0  0
  1  2  1  0  0  0
  2  3  2  0  0  0
  3  4  1  0  0  0
  4  5  2  0  0  0
  5  6  1  0  0  0
  6  7  1  0  0  0
  7  8  2  0  0  0
  8  9  1  0  0  0
  9 10  2  0  0  0
  9 11  1  0  0  0
 11 14  1  0  0  0
 14 15  1  0  0  0
 15 16  1  0  0  0
 16 17  1  0  0  0
 17 18  1  0  0  0
 18 19  1  0  0  0
 19 20  1  0  0  0
 18 21  1  0  0  0
 21 22  1  0  0  0
  6  1  2  0  0  0
 18 15  1  0  0  0
 11  5  1  0  0  0
M  END
> <minimizedAffinity>
-8.43226

$$$$
OCNT-2309991


 24 26  0  0  0  0  0  0  0  0999 V2000
    0.8600   18.5938   19.1398 C   0  0  0  0  0  0  0  0  0  0  0  0
   -0.0242   18.8918   18.1564 N   0  0  0  0  0  0  0  0  0  0  0  0
   -0.8306   17.9214   17.6880 C   0  0  0  0  0  0  0  0  0  0  0  0
   -0.8820   16.6385   18.0712 N   0  0  0  0  0  0  0  0  0  0  0  0
    0.0078   16.3781   19.0420 C   0  0  0  0  0  0  0  0  0  0  0  0
    0.8958   17.2671   19.6220 C   0  0  0  0  0  0  0  0  0  0  0  0
    1.7194   16.7202   20.6041 N   0  0  0  0  0  0  0  0  0  0  0  0
    1.4320   15.4357   20.7627 C   0  0  0  0  0  0  0  0  0  0  0  0
    0.1786   14.8326   19.7335 S   0  0  0  0  0  0  0  0  0  0  0  0
    2.0866   14.4886   21.7304 C   0  0  0  0  0  0  0  0  0  0  0  0
    1.8768   13.1872   21.3937 F   0  0  0  0  0  0  0  0  0  0  0  0
    3.4344   14.6564   21.7953 F   0  0  0  0  0  0  0  0  0  0  0  0
    1.6169   14.6443   22.9974 F   0  0  0  0  0  0  0  0  0  0  0  0
    1.6981   19.5814   19.6737 N   0  0  0  0  0  0  0  0  0  0  0  0
    1.7613   19.4620   20.6845 H   0  0  0  0  0  0  0  0  0  0  0  0
    2.9788   19.7375   18.9899 C   0  0  0  0  0  0  0  0  0  0  0  0
    3.8719   20.6909   19.7852 C   0  0  0  0  0  0  0  0  0  0  0  0
    6.5254   21.7455   20.7813 C   0  0  0  0  0  0  0  0  0  0  0  0
    5.9754   20.4172   21.2054 C   0  0  0  0  0  0  0  0  0  0  0  0
    6.7451   19.6998   22.0662 N   0  0  0  0  0  0  0  0  0  0  0  0
    6.2531   18.5042   22.4554 C   0  0  0  0  0  0  0  0  0  0  0  0
    5.0384   18.0269   22.0081 C   0  0  0  0  0  0  0  0  0  0  0  0
    4.2608   18.7241   21.1519 N   0  0  0  0  0  0  0  0  0  0  0  0
    4.7378   19.9360   20.7562 C   0  0  0  0  0  0  0  0  0  0  0  0
 18 19  1  0  0  0
 19 20  1  0  0  0
 20 21  2  0  0  0
 21 22  1  0  0  0
 22 23  2  0  0  0
 23 24  1  0  0  0
 24 17  1  0  0  0
 17 16  1  0  0  0
 16 14  1  0  0  0
 14  1  1  0  0  0
  1  2  1  0  0  0
  2  3  2  0  0  0
  3  4  1  0  0  0
  4  5  2  0  0  0
  5  6  1  0  0  0
  6  7  1  0  0  0
  7  8  2  0  0  0
  8 10  1  0  0  0
 10 11  1  0  0  0
 10 12  1  0  0  0
 10 13  1  0  0  0
  8  9  1  0  0  0
 24 19  2  0  0  0
  6  1  2  0  0  0
  9  5  1  0  0  0
 14 15  1  0  0  0
M  END
> <minimizedAffinity>
-10.05472

$$$$
OCNT-2309995


 33 36  0  0  0  0  0  0  0  0999 V2000
    2.3754   14.7178   22.3604 S   0  0  0  0  0  0  0  0  0  0  0  0
    1.5874   14.6675   23.5715 O   0  0  0  0  0  0  0  0  0  0  0  0
    3.3462   13.6974   22.0363 O   0  0  0  0  0  0  0  0  0  0  0  0
    1.2472   14.8010   20.9842 C   0  0  0  0  0  0  0  0  0  0  0  0
    0.8572   13.6299   20.3228 C   0  0  0  0  0  0  0  0  0  0  0  0
   -0.0377   13.7103   19.2532 C   0  0  0  0  0  0  0  0  0  0  0  0
   -0.5271   14.9518   18.8492 C   0  0  0  0  0  0  0  0  0  0  0  0
   -1.4029   14.9970   17.8354 F   0  0  0  0  0  0  0  0  0  0  0  0
   -0.1156   16.1174   19.4934 C   0  0  0  0  0  0  0  0  0  0  0  0
    0.7730   16.0503   20.5701 C   0  0  0  0  0  0  0  0  0  0  0  0
   -0.6596   17.4277   19.1026 C   0  0  0  0  0  0  0  0  0  0  0  0
   -0.9494   18.2201   19.9958 O   0  0  0  0  0  0  0  0  0  0  0  0
   -0.7773   17.7150   17.7592 N   0  0  0  0  0  0  0  0  0  0  0  0
   -0.3175   16.9120   16.6342 C   0  0  0  0  0  0  0  0  0  0  0  0
   -0.3099   17.8810   15.4596 C   0  0  0  0  0  0  0  0  0  0  0  0
   -1.4376   18.8448   15.8075 C   0  0  0  0  0  0  0  0  0  0  0  0
   -1.2989   18.9948   17.3150 C   0  0  0  0  0  0  0  0  0  0  0  0
    3.1534   16.2050   22.2943 N   0  0  0  0  0  0  0  0  0  0  0  0
    3.3102   16.5635   23.2436 H   0  0  0  0  0  0  0  0  0  0  0  0
    4.3508   16.2800   21.4411 C   0  0  0  0  0  0  0  0  0  0  0  0
    4.2266   18.7781   20.5756 C   0  0  0  0  0  0  0  0  0  0  0  0
    5.0222   19.8773   20.8621 C   0  0  0  0  0  0  0  0  0  0  0  0
    4.9753   21.3072   20.4366 C   0  0  0  0  0  0  0  0  0  0  0  0
    6.3025   22.0284   20.6930 C   0  0  0  0  0  0  0  0  0  0  0  0
    6.8396   21.7137   22.0898 C   0  0  0  0  0  0  0  0  0  0  0  0
    7.0838   20.2141   22.2493 C   0  0  0  0  0  0  0  0  0  0  0  0
    5.9865   19.4253   21.7199 N   0  0  0  0  0  0  0  0  0  0  0  0
    5.8871   18.1238   22.0180 N   0  0  0  0  0  0  0  0  0  0  0  0
    4.8226   17.7058   21.3157 C   0  0  0  0  0  0  0  0  0  0  0  0
    3.0531   18.6997   19.7224 C   0  0  0  0  0  0  0  0  0  0  0  0
    3.0081   17.9558   18.7485 O   0  0  0  0  0  0  0  0  0  0  0  0
    1.5344   20.3636   19.0895 C   0  0  0  0  0  0  0  0  0  0  0  0
    2.0325   19.5093   20.1213 O   0  0  0  0  0  0  0  0  0  0  0  0
 32 33  1  0  0  0
 33 30  1  0  0  0
 30 31  2  0  0  0
 30 21  1  0  0  0
 21 22  2  0  0  0
 22 23  1  0  0  0
 23 24  1  0  0  0
 24 25  1  0  0  0
 25 26  1  0  0  0
 26 27  1  0  0  0
 27 28  1  0  0  0
 28 29  2  0  0  0
 29 20  1  0  0  0
 20 18  1  0  0  0
 18  1  1  0  0  0
  1  2  2  0  0  0
  1  3  2  0  0  0
  1  4  1  0  0  0
  4  5  1  0  0  0
  5  6  2  0  0  0
  6  7  1  0  0  0
  7  8  1  0  0  0
  7  9  2  0  0  0
  9 11  1  0  0  0
 11 12  2  0  0  0
 11 13  1  0  0  0
 13 14  1  0  0  0
 14 15  1  0  0  0
 15 16  1  0  0  0
 16 17  1  0  0  0
  9 10  1  0  0  0
 29 21  1  0  0  0
 10  4  2  0  0  0
 27 22  1  0  0  0
 17 13  1  0  0  0
 18 19  1  0  0  0
M  END
> <minimizedAffinity>
-5.99964

$$$$
OCNT-2310008


 25 29  0  0  0  0  0  0  0  0999 V2000
    1.8571   16.4504   20.4578 C   0  0  0  0  0  0  0  0  0  0  0  0
    2.6134   17.5256   20.4204 N   0  0  0  0  0  0  0  0  0  0  0  0
    3.5501   17.2711   21.3952 C   0  0  0  0  0  0  0  0  0  0  0  0
    3.3926   16.0934   22.0178 N   0  0  0  0  0  0  0  0  0  0  0  0
    2.2708   15.5471   21.3981 O   0  0  0  0  0  0  0  0  0  0  0  0
    0.6164   16.2366   19.5258 C   0  0  0  0  0  0  0  0  0  0  0  0
    0.8860   16.6697   18.0462 C   0  0  0  0  0  0  0  0  0  0  0  0
   -0.3150   17.5716   18.1389 C   0  0  0  0  0  0  0  0  0  0  0  0
   -0.2388   18.9737   17.5802 C   0  0  0  0  0  0  0  0  0  0  0  0
   -1.7315   18.8100   17.1986 C   0  0  0  0  0  0  0  0  0  0  0  0
   -1.5316   17.2761   17.2876 C   0  0  0  0  0  0  0  0  0  0  0  0
   -0.4303   17.3950   19.6355 C   0  0  0  0  0  0  0  0  0  0  0  0
   -0.6834   14.7440   20.8158 F   0  0  0  0  0  0  0  0  0  0  0  0
    0.0396   14.8517   19.6772 C   0  0  0  0  0  0  0  0  0  0  0  0
   -0.7666   14.5404   18.6360 F   0  0  0  0  0  0  0  0  0  0  0  0
    1.0148   13.9124   19.7279 F   0  0  0  0  0  0  0  0  0  0  0  0
    4.6201   18.2355   21.7017 C   0  0  0  0  0  0  0  0  0  0  0  0
    5.6793   17.9723   22.4868 N   0  0  0  0  0  0  0  0  0  0  0  0
    6.3764   19.1210   22.4832 N   0  0  0  0  0  0  0  0  0  0  0  0
    5.8054   20.0966   21.7233 C   0  0  0  0  0  0  0  0  0  0  0  0
    4.6543   19.5611   21.2023 C   0  0  0  0  0  0  0  0  0  0  0  0
    7.2351   19.1691   23.0207 H   0  0  0  0  0  0  0  0  0  0  0  0
    6.3387   21.5297   21.5198 C   0  0  0  0  0  0  0  0  0  0  0  0
    7.4763   21.7540   20.5599 C   0  0  0  0  0  0  0  0  0  0  0  0
    6.0949   22.2193   20.2044 C   0  0  0  0  0  0  0  0  0  0  0  0
 13 14  1  0  0  0
 14 15  1  0  0  0
 14 16  1  0  0  0
 14  6  1  0  0  0
  6  1  1  0  0  0
  1  2  2  0  0  0
  2  3  1  0  0  0
  3 17  1  0  0  0
 17 18  2  0  0  0
 18 19  1  0  0  0
 19 20  1  0  0  0
 20 23  1  0  0  0
 23 24  1  0  0  0
 24 25  1  0  0  0
 20 21  2  0  0  0
  3  4  2  0  0  0
  4  5  1  0  0  0
  6  7  1  0  0  0
  7  8  1  0  0  0
  8  9  1  0  0  0
  9 10  1  0  0  0
 10 11  1  0  0  0
  8 12  1  0  0  0
 12  6  1  0  0  0
  5  1  1  0  0  0
 11  8  1  0  0  0
 21 17  1  0  0  0
 25 23  1  0  0  0
 19 22  1  0  0  0
M  END
> <minimizedAffinity>
-9.86378

$$$$
OCNT-2310018


 26 29  0  0  0  0  0  0  0  0999 V2000
    7.7500   21.9592   22.7774 O   0  0  0  0  0  0  0  0  0  0  0  0
    6.7573   21.3076   22.1086 C   0  0  0  0  0  0  0  0  0  0  0  0
    6.0923   21.9947   21.1090 C   0  0  0  0  0  0  0  0  0  0  0  0
    5.0792   21.3556   20.3972 C   0  0  0  0  0  0  0  0  0  0  0  0
    4.7212   20.0194   20.6709 C   0  0  0  0  0  0  0  0  0  0  0  0
    3.6141   19.4165   19.8300 C   0  0  0  0  0  0  0  0  0  0  0  0
    3.7636   17.9235   19.5242 C   0  0  0  0  0  0  0  0  0  0  0  0
    3.2689   17.0635   20.6099 N   0  0  0  0  0  0  0  0  0  0  0  0
    3.6024   17.4842   21.9815 C   0  0  0  0  0  0  0  0  0  0  0  0
    5.0631   17.9143   22.1289 C   0  0  0  0  0  0  0  0  0  0  0  0
    5.3747   19.3399   21.7187 C   0  0  0  0  0  0  0  0  0  0  0  0
    6.4120   19.9955   22.4155 C   0  0  0  0  0  0  0  0  0  0  0  0
    8.1183   21.3613   23.4479 H   0  0  0  0  0  0  0  0  0  0  0  0
    2.0955   16.3306   20.4237 C   0  0  0  0  0  0  0  0  0  0  0  0
    1.9316   15.2150   21.1028 N   0  0  0  0  0  0  0  0  0  0  0  0
    0.7727   14.4860   20.9539 C   0  0  0  0  0  0  0  0  0  0  0  0
   -0.2255   14.8366   20.1345 C   0  0  0  0  0  0  0  0  0  0  0  0
   -0.0878   15.9837   19.3801 N   0  0  0  0  0  0  0  0  0  0  0  0
   -0.9556   16.5093   18.4821 N   0  0  0  0  0  0  0  0  0  0  0  0
   -0.3240   17.5836   17.9687 C   0  0  0  0  0  0  0  0  0  0  0  0
    0.9495   17.7567   18.5692 C   0  0  0  0  0  0  0  0  0  0  0  0
    1.0575   16.7400   19.4890 C   0  0  0  0  0  0  0  0  0  0  0  0
   -0.9333   18.4491   16.8978 C   0  0  0  0  0  0  0  0  0  0  0  0
   -0.0922   19.4562   16.5286 F   0  0  0  0  0  0  0  0  0  0  0  0
   -2.0861   19.0454   17.3018 F   0  0  0  0  0  0  0  0  0  0  0  0
   -1.2169   17.7542   15.7648 F   0  0  0  0  0  0  0  0  0  0  0  0
  1  2  1  0  0  0
  2  3  1  0  0  0
  3  4  2  0  0  0
  4  5  1  0  0  0
  5  6  1  0  0  0
  6  7  1  0  0  0
  7  8  1  0  0  0
  8 14  1  0  0  0
 14 15  2  0  0  0
 15 16  1  0  0  0
 16 17  2  0  0  0
 17 18  1  0  0  0
 18 19  1  0  0  0
 19 20  2  0  0  0
 20 23  1  0  0  0
 23 24  1  0  0  0
 23 25  1  0  0  0
 23 26  1  0  0  0
 20 21  1  0  0  0
 21 22  2  0  0  0
  8  9  1  0  0  0
  9 10  1  0  0  0
 10 11  1  0  0  0
 11 12  1  0  0  0
 12  2  2  0  0  0
 11  5  2  0  0  0
 22 14  1  0  0  0
 22 18  1  0  0  0
  1 13  1  0  0  0
M  END
> <minimizedAffinity>
-10.33329

$$$$
OCNT-2310022


 24 27  0  0  0  0  0  0  0  0999 V2000
    7.3719   21.8014   20.6150 C   0  0  0  0  0  0  0  0  0  0  0  0
    6.3351   21.0048   21.4147 C   0  0  0  0  0  0  0  0  0  0  0  0
    5.6084   21.9521   22.3822 C   0  0  0  0  0  0  0  0  0  0  0  0
    5.3746   20.5329   20.4634 O   0  0  0  0  0  0  0  0  0  0  0  0
    4.7195   19.3851   20.8188 C   0  0  0  0  0  0  0  0  0  0  0  0
    3.5622   19.0807   20.1005 C   0  0  0  0  0  0  0  0  0  0  0  0
    2.8309   17.9116   20.3708 C   0  0  0  0  0  0  0  0  0  0  0  0
    3.3058   17.0522   21.3775 C   0  0  0  0  0  0  0  0  0  0  0  0
    4.4731   17.3462   22.0898 C   0  0  0  0  0  0  0  0  0  0  0  0
    5.1747   18.5152   21.8087 C   0  0  0  0  0  0  0  0  0  0  0  0
    6.3575   18.7912   22.4920 N   0  0  0  0  0  0  0  0  0  0  0  0
    7.0712   19.9354   22.2556 C   0  0  0  0  0  0  0  0  0  0  0  0
    8.1766   20.0998   22.7678 O   0  0  0  0  0  0  0  0  0  0  0  0
    6.7751   18.1100   23.1113 H   0  0  0  0  0  0  0  0  0  0  0  0
    1.6065   17.5927   19.6178 C   0  0  0  0  0  0  0  0  0  0  0  0
    0.9738   16.3478   19.7609 C   0  0  0  0  0  0  0  0  0  0  0  0
   -0.1855   16.0391   19.0431 C   0  0  0  0  0  0  0  0  0  0  0  0
   -0.7397   16.9699   18.1581 C   0  0  0  0  0  0  0  0  0  0  0  0
   -2.0093   16.6410   17.4077 C   0  0  0  0  0  0  0  0  0  0  0  0
   -2.2764   17.5350   16.3204 O   0  0  0  0  0  0  0  0  0  0  0  0
   -2.1631   18.8983   16.7305 C   0  0  0  0  0  0  0  0  0  0  0  0
   -0.7049   19.2222   17.0409 C   0  0  0  0  0  0  0  0  0  0  0  0
   -0.1318   18.2272   18.0170 C   0  0  0  0  0  0  0  0  0  0  0  0
    1.0377   18.5239   18.7332 C   0  0  0  0  0  0  0  0  0  0  0  0
  1  2  1  0  0  0
  2  3  1  0  0  0
  2  4  1  0  0  0
  4  5  1  0  0  0
  5  6  1  0  0  0
  6  7  2  0  0  0
  7 15  1  0  0  0
 15 16  1  0  0  0
 16 17  2  0  0  0
 17 18  1  0  0  0
 18 19  1  0  0  0
 19 20  1  0  0  0
 20 21  1  0  0  0
 21 22  1  0  0  0
 22 23  1  0  0  0
 23 24  1  0  0  0
  7  8  1  0  0  0
  8  9  2  0  0  0
  9 10  1  0  0  0
 10 11  1  0  0  0
 11 12  1  0  0  0
 12 13  2  0  0  0
 12  2  1  0  0  0
 10  5  2  0  0  0
 24 15  2  0  0  0
 23 18  2  0  0  0
 11 14  1  0  0  0
M  END
> <minimizedAffinity>
-8.72292

$$$$
OCNT-2310028


 30 32  0  0  0  0  0  0  0  0999 V2000
    0.3650   19.0382   18.7675 N   0  0  0  0  0  0  0  0  0  0  0  0
    0.0880   18.2433   17.6695 C   0  0  0  0  0  0  0  0  0  0  0  0
    0.8941   17.6067   17.0018 O   0  0  0  0  0  0  0  0  0  0  0  0
   -0.4255   19.3821   19.2964 H   0  0  0  0  0  0  0  0  0  0  0  0
    4.1939   19.8100   20.4169 C   0  0  0  0  0  0  0  0  0  0  0  0
    3.6575   18.5204   20.3734 C   0  0  0  0  0  0  0  0  0  0  0  0
    2.3884   18.2965   19.8218 C   0  0  0  0  0  0  0  0  0  0  0  0
    1.6343   19.3508   19.2969 C   0  0  0  0  0  0  0  0  0  0  0  0
    2.1711   20.6355   19.3335 C   0  0  0  0  0  0  0  0  0  0  0  0
    3.4415   20.8651   19.8811 C   0  0  0  0  0  0  0  0  0  0  0  0
    8.5571   19.7352   22.9476 C   0  0  0  0  0  0  0  0  0  0  0  0
    7.4180   20.0245   22.0445 C   0  0  0  0  0  0  0  0  0  0  0  0
    6.1738   19.4131   21.9859 C   0  0  0  0  0  0  0  0  0  0  0  0
    5.6334   18.3552   22.8773 C   0  0  0  0  0  0  0  0  0  0  0  0
    5.4896   20.0636   20.9608 N   0  0  0  0  0  0  0  0  0  0  0  0
    6.3448   21.0585   20.5283 C   0  0  0  0  0  0  0  0  0  0  0  0
    7.5035   21.0461   21.1425 N   0  0  0  0  0  0  0  0  0  0  0  0
   -1.3569   18.1329   17.3193 C   0  0  0  0  0  0  0  0  0  0  0  0
   -2.0932   16.9708   17.5729 C   0  0  0  0  0  0  0  0  0  0  0  0
   -3.4408   16.9186   17.2196 C   0  0  0  0  0  0  0  0  0  0  0  0
   -4.0582   18.0245   16.6265 C   0  0  0  0  0  0  0  0  0  0  0  0
   -3.3407   19.1998   16.3942 C   0  0  0  0  0  0  0  0  0  0  0  0
   -1.9867   19.2468   16.7450 C   0  0  0  0  0  0  0  0  0  0  0  0
   -3.8969   20.3551   15.8121 N   0  0  0  0  0  0  0  0  0  0  0  0
   -4.8193   20.4222   14.8030 C   0  0  0  0  0  0  0  0  0  0  0  0
   -5.0929   21.7137   14.4544 N   0  0  0  0  0  0  0  0  0  0  0  0
   -5.3877   19.5066   14.2277 O   0  0  0  0  0  0  0  0  0  0  0  0
   -3.6996   21.2352   16.2660 H   0  0  0  0  0  0  0  0  0  0  0  0
   -5.7045   21.7644   13.6477 H   0  0  0  0  0  0  0  0  0  0  0  0
   -4.3048   22.3426   14.4009 H   0  0  0  0  0  0  0  0  0  0  0  0
 11 12  1  0  0  0
 12 13  2  0  0  0
 13 14  1  0  0  0
 13 15  1  0  0  0
 15  5  1  0  0  0
  5  6  1  0  0  0
  6  7  2  0  0  0
  7  8  1  0  0  0
  8  1  1  0  0  0
  1  2  1  0  0  0
  2  3  2  0  0  0
  2 18  1  0  0  0
 18 19  1  0  0  0
 19 20  2  0  0  0
 20 21  1  0  0  0
 21 22  2  0  0  0
 22 24  1  0  0  0
 24 25  1  0  0  0
 25 26  1  0  0  0
 25 27  2  0  0  0
 22 23  1  0  0  0
  8  9  2  0  0  0
  9 10  1  0  0  0
 15 16  1  0  0  0
 16 17  2  0  0  0
 17 12  1  0  0  0
 10  5  2  0  0  0
 23 18  2  0  0  0
  1  4  1  0  0  0
 24 28  1  0  0  0
 26 29  1  0  0  0
 26 30  1  0  0  0
M  END
> <minimizedAffinity>
2.43853

$$$$
OCNT-2310035


 22 24  0  0  0  0  0  0  0  0999 V2000
    1.4956   19.9583   18.0422 O   0  0  0  0  0  0  0  0  0  0  0  0
    1.2400   19.2939   19.0426 C   0  0  0  0  0  0  0  0  0  0  0  0
    2.0466   19.2194   20.1572 N   0  0  0  0  0  0  0  0  0  0  0  0
    0.0512   18.5751   19.1570 N   0  0  0  0  0  0  0  0  0  0  0  0
   -0.9264   18.7075   18.0801 C   0  0  0  0  0  0  0  0  0  0  0  0
   -0.7145   17.6129   17.0345 C   0  0  0  0  0  0  0  0  0  0  0  0
   -0.6267   16.2579   17.6873 C   0  0  0  0  0  0  0  0  0  0  0  0
   -0.8177   15.0986   16.9443 C   0  0  0  0  0  0  0  0  0  0  0  0
   -0.7354   13.8513   17.4561 N   0  0  0  0  0  0  0  0  0  0  0  0
   -0.4356   13.7515   18.7673 C   0  0  0  0  0  0  0  0  0  0  0  0
   -0.2122   14.8413   19.5937 C   0  0  0  0  0  0  0  0  0  0  0  0
   -0.2965   16.1255   19.0472 C   0  0  0  0  0  0  0  0  0  0  0  0
   -0.0788   17.3375   19.9287 C   0  0  0  0  0  0  0  0  0  0  0  0
    1.5587   19.0148   21.0159 H   0  0  0  0  0  0  0  0  0  0  0  0
    3.3658   19.6991   20.2871 C   0  0  0  0  0  0  0  0  0  0  0  0
    4.4097   18.9530   20.8448 C   0  0  0  0  0  0  0  0  0  0  0  0
    5.6953   19.4975   20.9593 C   0  0  0  0  0  0  0  0  0  0  0  0
    5.9413   20.7964   20.5228 C   0  0  0  0  0  0  0  0  0  0  0  0
    7.5221   21.4591   20.6686 Cl  0  0  0  0  0  0  0  0  0  0  0  0
    4.9017   21.5443   19.9786 C   0  0  0  0  0  0  0  0  0  0  0  0
    5.1091   22.8006   19.5560 F   0  0  0  0  0  0  0  0  0  0  0  0
    3.6204   21.0072   19.8621 C   0  0  0  0  0  0  0  0  0  0  0  0
  1  2  2  0  0  0
  2  3  1  0  0  0
  3 15  1  0  0  0
 15 16  1  0  0  0
 16 17  2  0  0  0
 17 18  1  0  0  0
 18 19  1  0  0  0
 18 20  2  0  0  0
 20 21  1  0  0  0
 20 22  1  0  0  0
  2  4  1  0  0  0
  4  5  1  0  0  0
  5  6  1  0  0  0
  6  7  1  0  0  0
  7  8  2  0  0  0
  8  9  1  0  0  0
  9 10  2  0  0  0
 10 11  1  0  0  0
 11 12  2  0  0  0
 12 13  1  0  0  0
 22 15  2  0  0  0
 13  4  1  0  0  0
 12  7  1  0  0  0
  3 14  1  0  0  0
M  END
> <minimizedAffinity>
-7.85206

$$$$
OCNT-2310036


 23 25  0  0  0  0  0  0  0  0999 V2000
    3.1312   17.4247   21.3954 N   0  0  0  0  0  0  0  0  0  0  0  0
    3.2867   16.0560   21.5825 C   0  0  0  0  0  0  0  0  0  0  0  0
    4.3654   15.4871   21.7106 O   0  0  0  0  0  0  0  0  0  0  0  0
    2.1883   17.7842   21.3888 H   0  0  0  0  0  0  0  0  0  0  0  0
    6.0995   20.3896   20.8703 C   0  0  0  0  0  0  0  0  0  0  0  0
    6.1790   19.5344   21.9709 C   0  0  0  0  0  0  0  0  0  0  0  0
    5.2085   18.5434   22.1695 C   0  0  0  0  0  0  0  0  0  0  0  0
    4.1478   18.3967   21.2730 C   0  0  0  0  0  0  0  0  0  0  0  0
    4.0761   19.2573   20.1685 C   0  0  0  0  0  0  0  0  0  0  0  0
    5.0439   20.2481   19.9674 C   0  0  0  0  0  0  0  0  0  0  0  0
    7.8984   22.2206   20.4943 N   0  0  0  0  0  0  0  0  0  0  0  0
    7.0928   21.4032   20.6672 C   0  0  0  0  0  0  0  0  0  0  0  0
    2.0276   15.3005   21.6353 C   0  0  0  0  0  0  0  0  0  0  0  0
    1.2196   14.8924   20.5952 C   0  0  0  0  0  0  0  0  0  0  0  0
    0.1581   14.2102   21.1066 O   0  0  0  0  0  0  0  0  0  0  0  0
    0.3672   14.2209   22.4610 C   0  0  0  0  0  0  0  0  0  0  0  0
    1.4649   14.8549   22.8220 N   0  0  0  0  0  0  0  0  0  0  0  0
   -0.6268   13.5477   23.2922 C   0  0  0  0  0  0  0  0  0  0  0  0
   -1.1628   14.2142   24.4050 C   0  0  0  0  0  0  0  0  0  0  0  0
   -2.1157   13.5973   25.2196 C   0  0  0  0  0  0  0  0  0  0  0  0
   -2.5454   12.3041   24.9314 C   0  0  0  0  0  0  0  0  0  0  0  0
   -2.0238   11.6275   23.8306 C   0  0  0  0  0  0  0  0  0  0  0  0
   -1.0702   12.2453   23.0159 C   0  0  0  0  0  0  0  0  0  0  0  0
 11 12  3  0  0  0
 12  5  1  0  0  0
  5  6  1  0  0  0
  6  7  2  0  0  0
  7  8  1  0  0  0
  8  1  1  0  0  0
  1  2  1  0  0  0
  2  3  2  0  0  0
  2 13  1  0  0  0
 13 14  2  0  0  0
 14 15  1  0  0  0
 15 16  1  0  0  0
 16 18  1  0  0  0
 18 19  2  0  0  0
 19 20  1  0  0  0
 20 21  2  0  0  0
 21 22  1  0  0  0
 22 23  2  0  0  0
 16 17  2  0  0  0
  8  9  2  0  0  0
  9 10  1  0  0  0
 10  5  2  0  0  0
 17 13  1  0  0  0
 23 18  1  0  0  0
  1  4  1  0  0  0
M  END
> <minimizedAffinity>
-7.06590

$$$$
OCNT-2310045


 24 25  0  0  0  0  0  0  0  0999 V2000
    1.4545   19.8826   19.0685 C   0  0  0  0  0  0  0  0  0  0  0  0
    1.1380   20.8325   19.7791 O   0  0  0  0  0  0  0  0  0  0  0  0
    2.6233   19.1443   19.1231 N   0  0  0  0  0  0  0  0  0  0  0  0
    2.7708   18.4263   18.4286 H   0  0  0  0  0  0  0  0  0  0  0  0
    3.6766   19.3822   19.9775 C   0  0  0  0  0  0  0  0  0  0  0  0
    4.0111   18.6359   21.0272 N   0  0  0  0  0  0  0  0  0  0  0  0
    5.0772   19.2441   21.5680 N   0  0  0  0  0  0  0  0  0  0  0  0
    5.6821   18.6609   22.7451 C   0  0  0  0  0  0  0  0  0  0  0  0
    5.4611   20.3605   20.8824 C   0  0  0  0  0  0  0  0  0  0  0  0
    4.5621   20.4758   19.8406 C   0  0  0  0  0  0  0  0  0  0  0  0
    6.6141   21.1791   21.2826 C   0  0  0  0  0  0  0  0  0  0  0  0
    6.8737   22.1663   20.3892 F   0  0  0  0  0  0  0  0  0  0  0  0
    7.7443   20.4371   21.3942 F   0  0  0  0  0  0  0  0  0  0  0  0
    6.4125   21.7737   22.4845 F   0  0  0  0  0  0  0  0  0  0  0  0
    0.4849   19.3726   18.0090 C   0  0  0  0  0  0  0  0  0  0  0  0
    0.2455   15.8152   19.3881 C   0  0  0  0  0  0  0  0  0  0  0  0
    0.5339   17.1791   19.2705 C   0  0  0  0  0  0  0  0  0  0  0  0
    0.1774   17.8957   18.1153 C   0  0  0  0  0  0  0  0  0  0  0  0
   -0.4535   17.2234   17.0635 C   0  0  0  0  0  0  0  0  0  0  0  0
   -0.7398   15.8626   17.1714 C   0  0  0  0  0  0  0  0  0  0  0  0
   -0.3992   15.1501   18.3303 C   0  0  0  0  0  0  0  0  0  0  0  0
   -0.7110   13.6811   18.4237 C   0  0  0  0  0  0  0  0  0  0  0  0
    1.7643   15.3227   21.1619 C   0  0  0  0  0  0  0  0  0  0  0  0
    0.5486   15.0426   20.4792 O   0  0  0  0  0  0  0  0  0  0  0  0
 23 24  1  0  0  0
 24 16  1  0  0  0
 16 17  1  0  0  0
 17 18  2  0  0  0
 18 15  1  0  0  0
 15  1  1  0  0  0
  1  2  2  0  0  0
  1  3  1  0  0  0
  3  5  1  0  0  0
  5  6  2  0  0  0
  6  7  1  0  0  0
  7  8  1  0  0  0
  7  9  1  0  0  0
  9 11  1  0  0  0
 11 12  1  0  0  0
 11 13  1  0  0  0
 11 14  1  0  0  0
  9 10  2  0  0  0
 18 19  1  0  0  0
 19 20  2  0  0  0
 20 21  1  0  0  0
 21 22  1  0  0  0
 21 16  2  0  0  0
 10  5  1  0  0  0
  3  4  1  0  0  0
M  END
> <minimizedAffinity>
-10.04579

$$$$
OCNT-2310046


 24 27  0  0  0  0  0  0  0  0999 V2000
    0.8264   18.2051   18.7875 C   0  0  0  0  0  0  0  0  0  0  0  0
    0.0370   17.0807   18.5685 C   0  0  0  0  0  0  0  0  0  0  0  0
    0.2683   15.8944   19.2779 C   0  0  0  0  0  0  0  0  0  0  0  0
    1.2952   15.8107   20.2374 C   0  0  0  0  0  0  0  0  0  0  0  0
    1.5197   14.6628   20.9016 N   0  0  0  0  0  0  0  0  0  0  0  0
    2.5184   14.6431   21.7857 C   0  0  0  0  0  0  0  0  0  0  0  0
    3.3145   15.6668   22.0984 N   0  0  0  0  0  0  0  0  0  0  0  0
    3.0847   16.8246   21.4560 C   0  0  0  0  0  0  0  0  0  0  0  0
    2.0760   16.9521   20.4760 C   0  0  0  0  0  0  0  0  0  0  0  0
    1.8408   18.1380   19.7338 C   0  0  0  0  0  0  0  0  0  0  0  0
    3.8714   17.9469   21.8056 N   0  0  0  0  0  0  0  0  0  0  0  0
    4.8766   17.6117   22.8440 C   0  0  0  0  0  0  0  0  0  0  0  0
    6.3058   17.9195   22.3737 C   0  0  0  0  0  0  0  0  0  0  0  0
    6.4710   19.2828   21.9637 O   0  0  0  0  0  0  0  0  0  0  0  0
    5.4010   19.7695   21.1213 C   0  0  0  0  0  0  0  0  0  0  0  0
    6.0370   20.5203   19.9471 C   0  0  0  0  0  0  0  0  0  0  0  0
    6.5185   21.8393   20.5481 C   0  0  0  0  0  0  0  0  0  0  0  0
    5.6427   22.0906   21.7743 C   0  0  0  0  0  0  0  0  0  0  0  0
    4.6832   20.9044   21.8628 C   0  0  0  0  0  0  0  0  0  0  0  0
    4.4417   18.6555   20.6399 C   0  0  0  0  0  0  0  0  0  0  0  0
   -0.1463   19.0387   16.7832 C   0  0  0  0  0  0  0  0  0  0  0  0
    0.5071   19.2909   18.0219 O   0  0  0  0  0  0  0  0  0  0  0  0
   -0.4720   14.7443   19.0992 O   0  0  0  0  0  0  0  0  0  0  0  0
   -0.8150   14.3729   17.7720 C   0  0  0  0  0  0  0  0  0  0  0  0
 21 22  1  0  0  0
 22  1  1  0  0  0
  1  2  1  0  0  0
  2  3  2  0  0  0
  3 23  1  0  0  0
 23 24  1  0  0  0
  3  4  1  0  0  0
  4  5  2  0  0  0
  5  6  1  0  0  0
  6  7  2  0  0  0
  7  8  1  0  0  0
  8 11  1  0  0  0
 11 12  1  0  0  0
 12 13  1  0  0  0
 13 14  1  0  0  0
 14 15  1  0  0  0
 15 16  1  0  0  0
 16 17  1  0  0  0
 17 18  1  0  0  0
 18 19  1  0  0  0
 15 20  1  0  0  0
  8  9  2  0  0  0
  9 10  1  0  0  0
 10  1  2  0  0  0
  9  4  1  0  0  0
 20 11  1  0  0  0
 19 15  1  0  0  0
M  END
> <minimizedAffinity>
-9.17205

$$$$
OCNT-2310055


 22 25  0  0  0  0  0  0  0  0999 V2000
    7.1620   21.5942   20.6146 C   0  0  0  0  0  0  0  0  0  0  0  0
    5.9125   21.0455   21.3054 C   0  0  0  0  0  0  0  0  0  0  0  0
    5.4494   22.0183   22.3972 C   0  0  0  0  0  0  0  0  0  0  0  0
    4.7877   20.7610   20.2823 C   0  0  0  0  0  0  0  0  0  0  0  0
    4.3688   19.4122   20.7265 C   0  0  0  0  0  0  0  0  0  0  0  0
    3.2918   18.6454   20.3114 C   0  0  0  0  0  0  0  0  0  0  0  0
    3.1227   17.3574   20.8506 C   0  0  0  0  0  0  0  0  0  0  0  0
    4.0595   16.8837   21.7978 C   0  0  0  0  0  0  0  0  0  0  0  0
    5.1448   17.6677   22.2007 C   0  0  0  0  0  0  0  0  0  0  0  0
    5.2718   18.9256   21.6526 C   0  0  0  0  0  0  0  0  0  0  0  0
    6.2833   19.7957   21.9561 O   0  0  0  0  0  0  0  0  0  0  0  0
    1.9955   16.5155   20.4384 C   0  0  0  0  0  0  0  0  0  0  0  0
    1.7611   15.2682   21.0491 C   0  0  0  0  0  0  0  0  0  0  0  0
    0.6845   14.4447   20.6635 C   0  0  0  0  0  0  0  0  0  0  0  0
   -0.1882   14.8428   19.6516 C   0  0  0  0  0  0  0  0  0  0  0  0
    0.0525   16.0622   19.0581 C   0  0  0  0  0  0  0  0  0  0  0  0
    1.1121   16.8908   19.4323 C   0  0  0  0  0  0  0  0  0  0  0  0
    1.0897   18.1264   18.5760 C   0  0  0  0  0  0  0  0  0  0  0  0
   -0.1261   17.8803   17.6778 C   0  0  0  0  0  0  0  0  0  0  0  0
   -0.5520   18.6210   16.8073 O   0  0  0  0  0  0  0  0  0  0  0  0
   -0.6684   16.6528   18.0333 N   0  0  0  0  0  0  0  0  0  0  0  0
   -1.4802   16.2625   17.5792 H   0  0  0  0  0  0  0  0  0  0  0  0
  1  2  1  0  0  0
  2  3  1  0  0  0
  2  4  1  0  0  0
  4  5  1  0  0  0
  5  6  1  0  0  0
  6  7  2  0  0  0
  7 12  1  0  0  0
 12 13  1  0  0  0
 13 14  2  0  0  0
 14 15  1  0  0  0
 15 16  2  0  0  0
 16 17  1  0  0  0
 17 18  1  0  0  0
 18 19  1  0  0  0
 19 20  2  0  0  0
 19 21  1  0  0  0
  7  8  1  0  0  0
  8  9  2  0  0  0
  9 10  1  0  0  0
 10 11  1  0  0  0
 11  2  1  0  0  0
 10  5  2  0  0  0
 17 12  2  0  0  0
 21 16  1  0  0  0
 21 22  1  0  0  0
M  END
> <minimizedAffinity>
-14.00976

$$$$
OCNT-2310081


 23 24  0  0  0  0  0  0  0  0999 V2000
   -0.5491   19.3361   18.7687 O   0  0  0  0  0  0  0  0  0  0  0  0
    0.2402   18.1552   18.4907 S   0  0  0  0  0  0  0  0  0  0  0  0
    0.6361   17.7927   17.1467 O   0  0  0  0  0  0  0  0  0  0  0  0
    1.7360   18.3759   19.3968 C   0  0  0  0  0  0  0  0  0  0  0  0
    2.2767   17.4908   20.2056 N   0  0  0  0  0  0  0  0  0  0  0  0
    3.4452   17.9752   20.7578 N   0  0  0  0  0  0  0  0  0  0  0  0
    3.7395   19.2037   20.3583 C   0  0  0  0  0  0  0  0  0  0  0  0
    2.5768   19.8470   19.2531 S   0  0  0  0  0  0  0  0  0  0  0  0
    4.9282   19.9596   20.7983 C   0  0  0  0  0  0  0  0  0  0  0  0
    5.1624   21.2335   20.2491 C   0  0  0  0  0  0  0  0  0  0  0  0
    6.2714   21.9957   20.6280 C   0  0  0  0  0  0  0  0  0  0  0  0
    7.1697   21.4972   21.5659 C   0  0  0  0  0  0  0  0  0  0  0  0
    6.9593   20.2394   22.1237 C   0  0  0  0  0  0  0  0  0  0  0  0
    5.8488   19.4768   21.7439 C   0  0  0  0  0  0  0  0  0  0  0  0
   -0.6144   16.8463   19.1601 N   0  0  0  0  0  0  0  0  0  0  0  0
   -0.4844   16.8265   20.1734 H   0  0  0  0  0  0  0  0  0  0  0  0
   -0.4600   15.5445   18.4917 C   0  0  0  0  0  0  0  0  0  0  0  0
   -0.0879   14.5003   19.5419 C   0  0  0  0  0  0  0  0  0  0  0  0
    0.9673   15.0360   20.5079 C   0  0  0  0  0  0  0  0  0  0  0  0
    1.1265   14.1388   21.7154 C   0  0  0  0  0  0  0  0  0  0  0  0
    1.8570   13.0437   21.4212 F   0  0  0  0  0  0  0  0  0  0  0  0
   -0.0729   13.7307   22.1807 F   0  0  0  0  0  0  0  0  0  0  0  0
    1.7531   14.7972   22.7144 F   0  0  0  0  0  0  0  0  0  0  0  0
  1  2  2  0  0  0
  2  3  2  0  0  0
  2 15  1  0  0  0
 15 17  1  0  0  0
 17 18  1  0  0  0
 18 19  1  0  0  0
 19 20  1  0  0  0
 20 21  1  0  0  0
 20 22  1  0  0  0
 20 23  1  0  0  0
  2  4  1  0  0  0
  4  5  2  0  0  0
  5  6  1  0  0  0
  6  7  2  0  0  0
  7  9  1  0  0  0
  9 10  2  0  0  0
 10 11  1  0  0  0
 11 12  2  0  0  0
 12 13  1  0  0  0
 13 14  2  0  0  0
  7  8  1  0  0  0
  8  4  1  0  0  0
 14  9  1  0  0  0
 15 16  1  0  0  0
M  END
> <minimizedAffinity>
-10.22017

$$$$
OCNT-2310083


 22 24  0  0  0  0  0  0  0  0999 V2000
   -0.3820   16.7215   18.0313 C   0  0  0  0  0  0  0  0  0  0  0  0
   -0.7239   15.3956   18.3451 C   0  0  0  0  0  0  0  0  0  0  0  0
   -0.0654   14.7034   19.3624 C   0  0  0  0  0  0  0  0  0  0  0  0
    0.9394   15.3573   20.0590 C   0  0  0  0  0  0  0  0  0  0  0  0
    1.2917   16.6723   19.7488 C   0  0  0  0  0  0  0  0  0  0  0  0
    0.6366   17.3662   18.7405 C   0  0  0  0  0  0  0  0  0  0  0  0
    2.3437   17.1044   20.5819 N   0  0  0  0  0  0  0  0  0  0  0  0
    2.9365   18.3588   20.5574 C   0  0  0  0  0  0  0  0  0  0  0  0
    2.5865   19.2807   19.8215 O   0  0  0  0  0  0  0  0  0  0  0  0
    2.7482   15.9754   21.4396 C   0  0  0  0  0  0  0  0  0  0  0  0
    1.7604   14.8189   21.1938 C   0  0  0  0  0  0  0  0  0  0  0  0
    0.9193   14.5105   22.4267 C   0  0  0  0  0  0  0  0  0  0  0  0
   -1.5719   18.6033   17.1965 C   0  0  0  0  0  0  0  0  0  0  0  0
   -1.1178   17.2673   17.0124 O   0  0  0  0  0  0  0  0  0  0  0  0
    4.0837   18.5455   21.5500 C   0  0  0  0  0  0  0  0  0  0  0  0
    5.3056   19.2726   20.9580 C   0  0  0  0  0  0  0  0  0  0  0  0
    4.9330   20.7290   20.6218 C   0  0  0  0  0  0  0  0  0  0  0  0
    6.1598   21.6341   20.6443 C   0  0  0  0  0  0  0  0  0  0  0  0
    6.7703   21.7056   21.9728 N   0  0  0  0  0  0  0  0  0  0  0  0
    6.6567   20.4716   22.7506 C   0  0  0  0  0  0  0  0  0  0  0  0
    6.5319   19.2161   21.8917 C   0  0  0  0  0  0  0  0  0  0  0  0
    7.7521   21.9626   21.8705 H   0  0  0  0  0  0  0  0  0  0  0  0
 13 14  1  0  0  0
 14  1  1  0  0  0
  1  2  1  0  0  0
  2  3  2  0  0  0
  3  4  1  0  0  0
  4  5  2  0  0  0
  5  6  1  0  0  0
  5  7  1  0  0  0
  7  8  1  0  0  0
  8  9  2  0  0  0
  8 15  1  0  0  0
 15 16  1  0  0  0
 16 17  1  0  0  0
 17 18  1  0  0  0
 18 19  1  0  0  0
 19 20  1  0  0  0
 20 21  1  0  0  0
  7 10  1  0  0  0
 10 11  1  0  0  0
 11 12  1  0  0  0
  6  1  2  0  0  0
 21 16  1  0  0  0
 11  4  1  0  0  0
 19 22  1  0  0  0
M  END
> <minimizedAffinity>
-10.37913

$$$$
OCNT-2310084


 23 25  0  0  0  0  0  0  0  0999 V2000
    1.5904   14.4569   21.0968 O   0  0  0  0  0  0  0  0  0  0  0  0
    1.3959   15.5179   20.5061 C   0  0  0  0  0  0  0  0  0  0  0  0
    0.4373   15.5786   19.5363 N   0  0  0  0  0  0  0  0  0  0  0  0
    0.1830   16.7105   18.7670 C   0  0  0  0  0  0  0  0  0  0  0  0
   -0.8276   16.6903   17.8060 C   0  0  0  0  0  0  0  0  0  0  0  0
   -1.0652   17.8283   17.0312 C   0  0  0  0  0  0  0  0  0  0  0  0
   -0.2942   18.9780   17.2147 C   0  0  0  0  0  0  0  0  0  0  0  0
    0.7180   18.9937   18.1753 C   0  0  0  0  0  0  0  0  0  0  0  0
    0.9513   17.8544   18.9515 C   0  0  0  0  0  0  0  0  0  0  0  0
    2.0155   17.8301   19.9727 C   0  0  0  0  0  0  0  0  0  0  0  0
    2.7687   18.7939   20.0838 O   0  0  0  0  0  0  0  0  0  0  0  0
    2.1151   16.6768   20.7484 N   0  0  0  0  0  0  0  0  0  0  0  0
   -0.0907   14.7274   19.3916 H   0  0  0  0  0  0  0  0  0  0  0  0
    3.1417   16.6405   21.7905 C   0  0  0  0  0  0  0  0  0  0  0  0
    4.5349   16.8287   21.2149 C   0  0  0  0  0  0  0  0  0  0  0  0
    5.4097   18.0635   22.1521 S   0  0  0  0  0  0  0  0  0  0  0  0
    6.8074   17.6972   22.2142 O   0  0  0  0  0  0  0  0  0  0  0  0
    4.6470   18.3754   23.3398 O   0  0  0  0  0  0  0  0  0  0  0  0
    5.3215   19.3795   21.0734 N   0  0  0  0  0  0  0  0  0  0  0  0
    5.8306   19.1338   20.2202 H   0  0  0  0  0  0  0  0  0  0  0  0
    5.7934   20.6530   21.6427 C   0  0  0  0  0  0  0  0  0  0  0  0
    6.8981   21.4373   20.9969 C   0  0  0  0  0  0  0  0  0  0  0  0
    5.4881   21.9524   20.9525 C   0  0  0  0  0  0  0  0  0  0  0  0
  1  2  2  0  0  0
  2  3  1  0  0  0
  3  4  1  0  0  0
  4  5  2  0  0  0
  5  6  1  0  0  0
  6  7  2  0  0  0
  7  8  1  0  0  0
  8  9  2  0  0  0
  9 10  1  0  0  0
 10 11  2  0  0  0
 10 12  1  0  0  0
 12 14  1  0  0  0
 14 15  1  0  0  0
 15 16  1  0  0  0
 16 17  2  0  0  0
 16 18  2  0  0  0
 16 19  1  0  0  0
 19 21  1  0  0  0
 21 22  1  0  0  0
 22 23  1  0  0  0
 12  2  1  0  0  0
 23 21  1  0  0  0
  9  4  1  0  0  0
  3 13  1  0  0  0
 19 20  1  0  0  0
M  END
> <minimizedAffinity>
-9.34961

$$$$
OCNT-2310088


 29 31  0  0  0  0  0  0  0  0999 V2000
    2.6825   18.1911   20.0450 C   0  0  0  0  0  0  0  0  0  0  0  0
    1.8382   18.0946   19.1596 O   0  0  0  0  0  0  0  0  0  0  0  0
    2.8157   17.2915   21.0947 N   0  0  0  0  0  0  0  0  0  0  0  0
    3.4841   17.5269   21.8138 H   0  0  0  0  0  0  0  0  0  0  0  0
    2.0762   16.1119   21.3261 C   0  0  0  0  0  0  0  0  0  0  0  0
    2.5811   15.2234   22.2840 C   0  0  0  0  0  0  0  0  0  0  0  0
    1.9133   14.0295   22.5726 C   0  0  0  0  0  0  0  0  0  0  0  0
    0.7270   13.7081   21.9140 C   0  0  0  0  0  0  0  0  0  0  0  0
    0.2236   14.5826   20.9504 C   0  0  0  0  0  0  0  0  0  0  0  0
    0.8956   15.7784   20.6606 C   0  0  0  0  0  0  0  0  0  0  0  0
    0.1631   12.5017   22.2711 O   0  0  0  0  0  0  0  0  0  0  0  0
   -0.9043   12.5252   23.1355 C   0  0  0  0  0  0  0  0  0  0  0  0
   -1.8454   11.4963   23.0328 C   0  0  0  0  0  0  0  0  0  0  0  0
   -2.9307   11.4575   23.9083 C   0  0  0  0  0  0  0  0  0  0  0  0
   -3.0657   12.4341   24.8959 C   0  0  0  0  0  0  0  0  0  0  0  0
   -2.1102   13.4463   25.0163 C   0  0  0  0  0  0  0  0  0  0  0  0
   -1.0217   13.4894   24.1422 C   0  0  0  0  0  0  0  0  0  0  0  0
    0.1550   14.7335   24.3531 Cl  0  0  0  0  0  0  0  0  0  0  0  0
    5.4819   20.6720   20.5452 C   0  0  0  0  0  0  0  0  0  0  0  0
    4.7703   21.4692   19.6787 C   0  0  0  0  0  0  0  0  0  0  0  0
    3.3466   20.6968   19.1372 S   0  0  0  0  0  0  0  0  0  0  0  0
    3.6471   19.2943   20.0897 C   0  0  0  0  0  0  0  0  0  0  0  0
    4.8373   19.4203   20.7878 C   0  0  0  0  0  0  0  0  0  0  0  0
    6.9850   21.1473   21.2568 S   0  0  0  0  0  0  0  0  0  0  0  0
    7.5844   22.0454   20.2963 O   0  0  0  0  0  0  0  0  0  0  0  0
    7.6034   19.9015   21.6430 O   0  0  0  0  0  0  0  0  0  0  0  0
    5.2646   22.0540   23.1024 C   0  0  0  0  0  0  0  0  0  0  0  0
    6.6645   22.0100   22.6678 N   0  0  0  0  0  0  0  0  0  0  0  0
    7.1145   22.9252   22.6185 H   0  0  0  0  0  0  0  0  0  0  0  0
 27 28  1  0  0  0
 28 24  1  0  0  0
 24 25  2  0  0  0
 24 26  2  0  0  0
 24 19  1  0  0  0
 19 20  2  0  0  0
 20 21  1  0  0  0
 21 22  1  0  0  0
 22  1  1  0  0  0
  1  2  2  0  0  0
  1  3  1  0  0  0
  3  5  1  0  0  0
  5  6  1  0  0  0
  6  7  2  0  0  0
  7  8  1  0  0  0
  8 11  1  0  0  0
 11 12  1  0  0  0
 12 13  2  0  0  0
 13 14  1  0  0  0
 14 15  2  0  0  0
 15 16  1  0  0  0
 16 17  2  0  0  0
 17 18  1  0  0  0
  8  9  2  0  0  0
  9 10  1  0  0  0
 22 23  2  0  0  0
 23 19  1  0  0  0
 10  5  2  0  0  0
 17 12  1  0  0  0
 28 29  1  0  0  0
  3  4  1  0  0  0
M  END
> <minimizedAffinity>
-1.77377

$$$$
OCNT-2310093


 27 29  0  0  0  0  0  0  0  0999 V2000
    1.2454   15.1584   21.2400 C   0  0  0  0  0  0  0  0  0  0  0  0
    0.7713   14.6537   22.2511 O   0  0  0  0  0  0  0  0  0  0  0  0
    2.4684   15.7888   21.2321 N   0  0  0  0  0  0  0  0  0  0  0  0
    2.7560   16.2852   20.3950 H   0  0  0  0  0  0  0  0  0  0  0  0
    0.2045   16.1717   19.1398 C   0  0  0  0  0  0  0  0  0  0  0  0
   -0.4809   16.0659   17.9736 N   0  0  0  0  0  0  0  0  0  0  0  0
   -0.9012   14.8358   17.5921 C   0  0  0  0  0  0  0  0  0  0  0  0
   -1.6545   14.7337   16.2992 C   0  0  0  0  0  0  0  0  0  0  0  0
   -0.6545   13.6936   18.3456 C   0  0  0  0  0  0  0  0  0  0  0  0
    0.0519   13.8226   19.5387 C   0  0  0  0  0  0  0  0  0  0  0  0
    0.5026   15.0800   19.9544 C   0  0  0  0  0  0  0  0  0  0  0  0
    0.6217   17.4265   19.5381 O   0  0  0  0  0  0  0  0  0  0  0  0
    0.8863   19.6631   18.6209 C   0  0  0  0  0  0  0  0  0  0  0  0
   -0.0737   18.5278   18.9430 C   0  0  0  0  0  0  0  0  0  0  0  0
    3.1927   16.0140   22.4635 C   0  0  0  0  0  0  0  0  0  0  0  0
    3.9693   17.2816   22.3670 C   0  0  0  0  0  0  0  0  0  0  0  0
    4.4565   17.8521   23.4759 N   0  0  0  0  0  0  0  0  0  0  0  0
    5.1073   18.9921   23.0566 O   0  0  0  0  0  0  0  0  0  0  0  0
    5.0175   19.1145   21.7009 C   0  0  0  0  0  0  0  0  0  0  0  0
    4.3022   18.0394   21.2025 C   0  0  0  0  0  0  0  0  0  0  0  0
    3.9634   17.7276   19.7935 C   0  0  0  0  0  0  0  0  0  0  0  0
    5.6627   20.2984   21.1399 C   0  0  0  0  0  0  0  0  0  0  0  0
    7.0361   20.5192   21.3322 C   0  0  0  0  0  0  0  0  0  0  0  0
    7.6648   21.6479   20.8002 C   0  0  0  0  0  0  0  0  0  0  0  0
    6.9267   22.5753   20.0686 C   0  0  0  0  0  0  0  0  0  0  0  0
    5.5625   22.3754   19.8699 C   0  0  0  0  0  0  0  0  0  0  0  0
    4.9340   21.2459   20.4040 C   0  0  0  0  0  0  0  0  0  0  0  0
 13 14  1  0  0  0
 14 12  1  0  0  0
 12  5  1  0  0  0
  5  6  2  0  0  0
  6  7  1  0  0  0
  7  8  1  0  0  0
  7  9  2  0  0  0
  9 10  1  0  0  0
 10 11  2  0  0  0
 11  1  1  0  0  0
  1  2  2  0  0  0
  1  3  1  0  0  0
  3 15  1  0  0  0
 15 16  1  0  0  0
 16 17  2  0  0  0
 17 18  1  0  0  0
 18 19  1  0  0  0
 19 22  1  0  0  0
 22 23  2  0  0  0
 23 24  1  0  0  0
 24 25  2  0  0  0
 25 26  1  0  0  0
 26 27  2  0  0  0
 19 20  2  0  0  0
 20 21  1  0  0  0
 11  5  1  0  0  0
 20 16  1  0  0  0
 27 22  1  0  0  0
  3  4  1  0  0  0
M  END
> <minimizedAffinity>
-6.07304

$$$$
OCNT-2310094


 24 26  0  0  0  0  0  0  0  0999 V2000
    3.7752   17.6702   21.1561 C   0  0  0  0  0  0  0  0  0  0  0  0
    2.9126   17.6526   20.1703 N   0  0  0  0  0  0  0  0  0  0  0  0
    2.0529   16.6242   20.5049 C   0  0  0  0  0  0  0  0  0  0  0  0
    2.3595   16.0124   21.6606 N   0  0  0  0  0  0  0  0  0  0  0  0
    3.4502   16.6908   22.0522 N   0  0  0  0  0  0  0  0  0  0  0  0
    3.9299   16.4573   22.9173 H   0  0  0  0  0  0  0  0  0  0  0  0
    0.9187   16.2517   19.6638 C   0  0  0  0  0  0  0  0  0  0  0  0
    0.5216   14.9101   19.5632 C   0  0  0  0  0  0  0  0  0  0  0  0
   -0.5621   14.5443   18.7612 C   0  0  0  0  0  0  0  0  0  0  0  0
   -1.2616   15.5186   18.0496 C   0  0  0  0  0  0  0  0  0  0  0  0
   -0.8788   16.8608   18.1387 C   0  0  0  0  0  0  0  0  0  0  0  0
    0.2076   17.2241   18.9435 C   0  0  0  0  0  0  0  0  0  0  0  0
   -1.5983   17.8619   17.4070 C   0  0  0  0  0  0  0  0  0  0  0  0
   -2.1780   18.6793   16.8215 N   0  0  0  0  0  0  0  0  0  0  0  0
    4.7837   19.8152   20.7678 C   0  0  0  0  0  0  0  0  0  0  0  0
    3.8016   20.2782   20.1902 O   0  0  0  0  0  0  0  0  0  0  0  0
    4.8330   18.5336   21.2680 N   0  0  0  0  0  0  0  0  0  0  0  0
    5.6496   18.1749   21.7384 H   0  0  0  0  0  0  0  0  0  0  0  0
    9.0853   22.3248   20.2612 C   0  0  0  0  0  0  0  0  0  0  0  0
    7.8818   21.7111   20.7691 N   0  0  0  0  0  0  0  0  0  0  0  0
    6.9657   20.9805   20.0644 C   0  0  0  0  0  0  0  0  0  0  0  0
    5.9891   20.6014   20.9694 C   0  0  0  0  0  0  0  0  0  0  0  0
    6.4288   21.1653   22.1907 C   0  0  0  0  0  0  0  0  0  0  0  0
    7.5755   21.8376   22.0696 N   0  0  0  0  0  0  0  0  0  0  0  0
 19 20  1  0  0  0
 20 21  1  0  0  0
 21 22  2  0  0  0
 22 15  1  0  0  0
 15 16  2  0  0  0
 15 17  1  0  0  0
 17  1  1  0  0  0
  1  2  2  0  0  0
  2  3  1  0  0  0
  3  7  1  0  0  0
  7  8  2  0  0  0
  8  9  1  0  0  0
  9 10  2  0  0  0
 10 11  1  0  0  0
 11 13  1  0  0  0
 13 14  3  0  0  0
 11 12  2  0  0  0
  3  4  2  0  0  0
  4  5  1  0  0  0
 22 23  1  0  0  0
 23 24  2  0  0  0
 24 20  1  0  0  0
  5  1  1  0  0  0
 12  7  1  0  0  0
 17 18  1  0  0  0
  5  6  1  0  0  0
M  END
> <minimizedAffinity>
-6.24483

$$$$
OCNT-2310098


 23 26  0  0  0  0  0  0  0  0999 V2000
    2.8836   18.2816   20.3304 C   0  0  0  0  0  0  0  0  0  0  0  0
    2.6659   16.9801   20.7794 C   0  0  0  0  0  0  0  0  0  0  0  0
    1.6735   16.1756   20.1944 C   0  0  0  0  0  0  0  0  0  0  0  0
    0.8937   16.6722   19.1424 C   0  0  0  0  0  0  0  0  0  0  0  0
    1.1120   17.9771   18.6743 C   0  0  0  0  0  0  0  0  0  0  0  0
    2.1074   18.7686   19.2724 C   0  0  0  0  0  0  0  0  0  0  0  0
    0.3397   18.5302   17.5052 C   0  0  0  0  0  0  0  0  0  0  0  0
   -0.9632   17.7765   17.2867 C   0  0  0  0  0  0  0  0  0  0  0  0
   -0.7002   16.2794   17.2928 C   0  0  0  0  0  0  0  0  0  0  0  0
   -0.0919   15.8418   18.5437 N   0  0  0  0  0  0  0  0  0  0  0  0
   -0.4146   14.5862   19.0459 C   0  0  0  0  0  0  0  0  0  0  0  0
   -1.1448   13.7868   18.4590 O   0  0  0  0  0  0  0  0  0  0  0  0
    0.0897   14.2856   20.4378 C   0  0  0  0  0  0  0  0  0  0  0  0
    1.5199   14.7439   20.6207 C   0  0  0  0  0  0  0  0  0  0  0  0
    5.4344   17.6939   21.7476 O   0  0  0  0  0  0  0  0  0  0  0  0
    5.0301   18.8291   21.5199 C   0  0  0  0  0  0  0  0  0  0  0  0
    3.8533   19.1489   20.8655 N   0  0  0  0  0  0  0  0  0  0  0  0
    3.6839   20.1450   20.7741 H   0  0  0  0  0  0  0  0  0  0  0  0
    5.7742   20.0077   21.9307 C   0  0  0  0  0  0  0  0  0  0  0  0
    7.1309   20.2175   22.0911 C   0  0  0  0  0  0  0  0  0  0  0  0
    7.2904   21.5598   22.5102 C   0  0  0  0  0  0  0  0  0  0  0  0
    6.0249   22.0913   22.5815 C   0  0  0  0  0  0  0  0  0  0  0  0
    5.0964   21.1632   22.2334 O   0  0  0  0  0  0  0  0  0  0  0  0
 15 16  2  0  0  0
 16 17  1  0  0  0
 17  1  1  0  0  0
  1  2  2  0  0  0
  2  3  1  0  0  0
  3  4  2  0  0  0
  4  5  1  0  0  0
  5  6  2  0  0  0
  5  7  1  0  0  0
  7  8  1  0  0  0
  8  9  1  0  0  0
  9 10  1  0  0  0
 10 11  1  0  0  0
 11 12  2  0  0  0
 11 13  1  0  0  0
 13 14  1  0  0  0
 16 19  1  0  0  0
 19 20  2  0  0  0
 20 21  1  0  0  0
 21 22  2  0  0  0
 22 23  1  0  0  0
  6  1  1  0  0  0
 23 19  1  0  0  0
 14  3  1  0  0  0
 10  4  1  0  0  0
 17 18  1  0  0  0
M  END
> <minimizedAffinity>
-9.05090

$$$$
OCNT-2310110


 26 28  0  0  0  0  0  0  0  0999 V2000
    0.9560   18.4437   19.8929 N   0  0  0  0  0  0  0  0  0  0  0  0
    1.9179   17.5886   20.3860 C   0  0  0  0  0  0  0  0  0  0  0  0
    1.7275   16.3891   20.5519 O   0  0  0  0  0  0  0  0  0  0  0  0
    1.1203   19.4417   19.8721 H   0  0  0  0  0  0  0  0  0  0  0  0
    3.2253   18.1931   20.7654 C   0  0  0  0  0  0  0  0  0  0  0  0
    4.1428   17.4070   21.4559 C   0  0  0  0  0  0  0  0  0  0  0  0
    5.3738   17.9461   21.8253 C   0  0  0  0  0  0  0  0  0  0  0  0
    5.7191   19.2759   21.5217 C   0  0  0  0  0  0  0  0  0  0  0  0
    6.9664   19.5738   21.9880 O   0  0  0  0  0  0  0  0  0  0  0  0
    7.2734   20.9388   22.2278 C   0  0  0  0  0  0  0  0  0  0  0  0
    7.4565   21.6636   20.9134 C   0  0  0  0  0  0  0  0  0  0  0  0
    6.1964   22.1445   20.4100 N   0  0  0  0  0  0  0  0  0  0  0  0
    5.0127   21.4738   20.3122 C   0  0  0  0  0  0  0  0  0  0  0  0
    4.0693   22.0766   19.7981 O   0  0  0  0  0  0  0  0  0  0  0  0
    4.8221   20.0709   20.7949 C   0  0  0  0  0  0  0  0  0  0  0  0
    3.5754   19.5050   20.4256 C   0  0  0  0  0  0  0  0  0  0  0  0
    6.1707   23.0540   19.9627 H   0  0  0  0  0  0  0  0  0  0  0  0
   -0.3640   17.9744   19.4870 C   0  0  0  0  0  0  0  0  0  0  0  0
    0.7451   18.0689   17.2014 C   0  0  0  0  0  0  0  0  0  0  0  0
   -0.4922   17.5807   17.9919 C   0  0  0  0  0  0  0  0  0  0  0  0
   -1.7317   18.2275   17.3381 C   0  0  0  0  0  0  0  0  0  0  0  0
   -0.5782   16.1031   17.9393 N   0  0  0  0  0  0  0  0  0  0  0  0
   -1.0081   15.3183   16.9010 C   0  0  0  0  0  0  0  0  0  0  0  0
   -0.9580   14.0184   17.3455 C   0  0  0  0  0  0  0  0  0  0  0  0
   -0.5132   14.1144   18.6728 C   0  0  0  0  0  0  0  0  0  0  0  0
   -0.2989   15.3767   19.0465 N   0  0  0  0  0  0  0  0  0  0  0  0
 19 20  1  0  0  0
 20 21  1  0  0  0
 20 18  1  0  0  0
 18  1  1  0  0  0
  1  2  1  0  0  0
  2  3  2  0  0  0
  2  5  1  0  0  0
  5  6  1  0  0  0
  6  7  2  0  0  0
  7  8  1  0  0  0
  8  9  1  0  0  0
  9 10  1  0  0  0
 10 11  1  0  0  0
 11 12  1  0  0  0
 12 13  1  0  0  0
 13 14  2  0  0  0
 13 15  1  0  0  0
 15 16  1  0  0  0
 20 22  1  0  0  0
 22 23  1  0  0  0
 23 24  2  0  0  0
 24 25  1  0  0  0
 25 26  2  0  0  0
 16  5  2  0  0  0
 26 22  1  0  0  0
 15  8  2  0  0  0
  1  4  1  0  0  0
 12 17  1  0  0  0
M  END
> <minimizedAffinity>
-8.75942

$$$$
OCNT-2310114


 31 34  0  0  0  0  0  0  0  0999 V2000
    1.4987   19.4608   18.2675 C   0  0  0  0  0  0  0  0  0  0  0  0
    0.7121   20.0209   17.2830 C   0  0  0  0  0  0  0  0  0  0  0  0
   -0.4492   18.8854   16.7453 S   0  0  0  0  0  0  0  0  0  0  0  0
    0.1463   17.7255   17.8783 C   0  0  0  0  0  0  0  0  0  0  0  0
    1.1824   18.1447   18.5731 N   0  0  0  0  0  0  0  0  0  0  0  0
    4.7683   21.3869   20.2274 C   0  0  0  0  0  0  0  0  0  0  0  0
    3.5437   22.0450   20.1322 C   0  0  0  0  0  0  0  0  0  0  0  0
    2.4640   21.4227   19.4952 C   0  0  0  0  0  0  0  0  0  0  0  0
    2.6028   20.1421   18.9392 C   0  0  0  0  0  0  0  0  0  0  0  0
    3.8458   19.4982   19.0425 C   0  0  0  0  0  0  0  0  0  0  0  0
    4.9270   20.1201   19.6743 C   0  0  0  0  0  0  0  0  0  0  0  0
    5.8830   22.0363   20.8320 N   0  0  0  0  0  0  0  0  0  0  0  0
    6.7452   22.0121   20.2836 H   0  0  0  0  0  0  0  0  0  0  0  0
    5.8256   19.8763   22.4291 C   0  0  0  0  0  0  0  0  0  0  0  0
    6.2500   21.6041   22.4287 S   0  0  0  0  0  0  0  0  0  0  0  0
    5.2721   22.2949   23.2433 O   0  0  0  0  0  0  0  0  0  0  0  0
    7.6667   21.7470   22.6757 O   0  0  0  0  0  0  0  0  0  0  0  0
   -0.3021   16.4543   18.0014 N   0  0  0  0  0  0  0  0  0  0  0  0
   -0.5187   16.0095   17.1160 H   0  0  0  0  0  0  0  0  0  0  0  0
   -0.1607   15.5273   19.0503 C   0  0  0  0  0  0  0  0  0  0  0  0
    0.3347   15.9934   20.2774 C   0  0  0  0  0  0  0  0  0  0  0  0
    0.5387   15.1288   21.3573 C   0  0  0  0  0  0  0  0  0  0  0  0
    0.2520   13.7643   21.2375 C   0  0  0  0  0  0  0  0  0  0  0  0
   -0.2360   13.2886   20.0153 C   0  0  0  0  0  0  0  0  0  0  0  0
   -0.4351   14.1610   18.9375 C   0  0  0  0  0  0  0  0  0  0  0  0
    0.4690   12.8287   22.4001 C   0  0  0  0  0  0  0  0  0  0  0  0
   -0.5313   13.0150   23.4347 N   0  0  0  0  0  0  0  0  0  0  0  0
   -0.7776   14.1393   24.1611 C   0  0  0  0  0  0  0  0  0  0  0  0
   -1.7953   13.9293   24.9640 N   0  0  0  0  0  0  0  0  0  0  0  0
   -2.1427   12.6377   24.6864 C   0  0  0  0  0  0  0  0  0  0  0  0
   -1.4034   12.0357   23.7506 N   0  0  0  0  0  0  0  0  0  0  0  0
 14 15  1  0  0  0
 15 16  2  0  0  0
 15 17  2  0  0  0
 15 12  1  0  0  0
 12  6  1  0  0  0
  6  7  1  0  0  0
  7  8  2  0  0  0
  8  9  1  0  0  0
  9  1  1  0  0  0
  1  2  2  0  0  0
  2  3  1  0  0  0
  3  4  1  0  0  0
  4 18  1  0  0  0
 18 20  1  0  0  0
 20 21  1  0  0  0
 21 22  2  0  0  0
 22 23  1  0  0  0
 23 26  1  0  0  0
 26 27  1  0  0  0
 27 28  1  0  0  0
 28 29  2  0  0  0
 29 30  1  0  0  0
 30 31  2  0  0  0
 23 24  2  0  0  0
 24 25  1  0  0  0
  4  5  2  0  0  0
  9 10  2  0  0  0
 10 11  1  0  0  0
 11  6  2  0  0  0
  5  1  1  0  0  0
 25 20  2  0  0  0
 31 27  1  0  0  0
 12 13  1  0  0  0
 18 19  1  0  0  0
M  END
> <minimizedAffinity>
-1.97344

$$$$
OCNT-2310115


 23 24  0  0  0  0  0  0  0  0999 V2000
    3.5464   17.0729   21.4728 C   0  0  0  0  0  0  0  0  0  0  0  0
    2.8350   17.7695   20.6061 N   0  0  0  0  0  0  0  0  0  0  0  0
    1.7582   16.9760   20.2691 C   0  0  0  0  0  0  0  0  0  0  0  0
    1.8261   15.7797   20.9504 C   0  0  0  0  0  0  0  0  0  0  0  0
    2.9618   15.8556   21.7106 N   0  0  0  0  0  0  0  0  0  0  0  0
    3.3077   15.1474   22.3437 H   0  0  0  0  0  0  0  0  0  0  0  0
    0.7295   17.3895   19.3251 C   0  0  0  0  0  0  0  0  0  0  0  0
    0.7440   18.6972   18.8204 C   0  0  0  0  0  0  0  0  0  0  0  0
   -0.2276   19.1299   17.9122 C   0  0  0  0  0  0  0  0  0  0  0  0
   -1.2440   18.2643   17.4977 C   0  0  0  0  0  0  0  0  0  0  0  0
   -2.2669   18.7150   16.4980 C   0  0  0  0  0  0  0  0  0  0  0  0
   -1.2575   16.9540   17.9864 C   0  0  0  0  0  0  0  0  0  0  0  0
   -0.2837   16.5226   18.8951 C   0  0  0  0  0  0  0  0  0  0  0  0
    4.8023   17.5048   22.1444 C   0  0  0  0  0  0  0  0  0  0  0  0
    6.0948   20.9215   21.8677 N   0  0  0  0  0  0  0  0  0  0  0  0
    6.1073   19.5500   22.0747 C   0  0  0  0  0  0  0  0  0  0  0  0
    7.1350   18.9130   22.2965 O   0  0  0  0  0  0  0  0  0  0  0  0
    4.8853   18.9408   22.0381 N   0  0  0  0  0  0  0  0  0  0  0  0
    4.2033   19.3361   21.4075 H   0  0  0  0  0  0  0  0  0  0  0  0
    4.4847   21.8812   20.2329 C   0  0  0  0  0  0  0  0  0  0  0  0
    4.8845   21.7302   21.6914 C   0  0  0  0  0  0  0  0  0  0  0  0
    7.3858   21.6055   21.7893 C   0  0  0  0  0  0  0  0  0  0  0  0
    7.8657   21.7955   20.3579 C   0  0  0  0  0  0  0  0  0  0  0  0
 20 21  1  0  0  0
 21 15  1  0  0  0
 15 22  1  0  0  0
 22 23  1  0  0  0
 15 16  1  0  0  0
 16 17  2  0  0  0
 16 18  1  0  0  0
 18 14  1  0  0  0
 14  1  1  0  0  0
  1  2  2  0  0  0
  2  3  1  0  0  0
  3  7  1  0  0  0
  7  8  1  0  0  0
  8  9  2  0  0  0
  9 10  1  0  0  0
 10 11  1  0  0  0
 10 12  2  0  0  0
 12 13  1  0  0  0
  3  4  2  0  0  0
  4  5  1  0  0  0
  5  1  1  0  0  0
 13  7  2  0  0  0
 18 19  1  0  0  0
  5  6  1  0  0  0
M  END
> <minimizedAffinity>
-8.75612

$$$$
OCNT-2310119


 24 26  0  0  0  0  0  0  0  0999 V2000
    3.9168   15.8559   21.5158 S   0  0  0  0  0  0  0  0  0  0  0  0
    4.3950   17.5267   21.3064 C   0  0  0  0  0  0  0  0  0  0  0  0
    3.5712   18.2693   20.6418 N   0  0  0  0  0  0  0  0  0  0  0  0
    3.9043   19.6117   20.4445 C   0  0  0  0  0  0  0  0  0  0  0  0
    3.0186   20.4303   19.7391 C   0  0  0  0  0  0  0  0  0  0  0  0
    3.3256   21.7726   19.5009 C   0  0  0  0  0  0  0  0  0  0  0  0
    4.5257   22.3078   19.9677 C   0  0  0  0  0  0  0  0  0  0  0  0
    5.4161   21.5005   20.6746 C   0  0  0  0  0  0  0  0  0  0  0  0
    5.0971   20.1573   20.9084 C   0  0  0  0  0  0  0  0  0  0  0  0
    6.0067   19.2764   21.6615 C   0  0  0  0  0  0  0  0  0  0  0  0
    7.0759   19.7303   22.0641 O   0  0  0  0  0  0  0  0  0  0  0  0
    5.5795   17.9681   21.8701 N   0  0  0  0  0  0  0  0  0  0  0  0
    6.4490   17.1122   22.6659 C   0  0  0  0  0  0  0  0  0  0  0  0
    2.0960   16.0114   21.4575 C   0  0  0  0  0  0  0  0  0  0  0  0
    1.3940   15.1862   20.3603 C   0  0  0  0  0  0  0  0  0  0  0  0
    0.5442   16.1148   19.5014 C   0  0  0  0  0  0  0  0  0  0  0  0
   -0.3401   15.5780   18.5525 C   0  0  0  0  0  0  0  0  0  0  0  0
   -1.1120   16.4194   17.7473 C   0  0  0  0  0  0  0  0  0  0  0  0
   -1.0030   17.8016   17.8834 C   0  0  0  0  0  0  0  0  0  0  0  0
   -1.9549   18.8357   16.8912 Cl  0  0  0  0  0  0  0  0  0  0  0  0
   -0.1280   18.3513   18.8170 C   0  0  0  0  0  0  0  0  0  0  0  0
    0.6445   17.5112   19.6217 C   0  0  0  0  0  0  0  0  0  0  0  0
    0.5765   14.3028   22.4179 C   0  0  0  0  0  0  0  0  0  0  0  0
    0.5547   14.2074   20.9967 O   0  0  0  0  0  0  0  0  0  0  0  0
 23 24  1  0  0  0
 24 15  1  0  0  0
 15 14  1  0  0  0
 14  1  1  0  0  0
  1  2  1  0  0  0
  2  3  2  0  0  0
  3  4  1  0  0  0
  4  5  2  0  0  0
  5  6  1  0  0  0
  6  7  2  0  0  0
  7  8  1  0  0  0
  8  9  2  0  0  0
  9 10  1  0  0  0
 10 11  2  0  0  0
 10 12  1  0  0  0
 12 13  1  0  0  0
 15 16  1  0  0  0
 16 17  1  0  0  0
 17 18  2  0  0  0
 18 19  1  0  0  0
 19 20  1  0  0  0
 19 21  2  0  0  0
 21 22  1  0  0  0
 12  2  1  0  0  0
 22 16  2  0  0  0
  9  4  1  0  0  0
M  END
> <minimizedAffinity>
-7.82152

$$$$
OCNT-2310141


 29 31  0  0  0  0  0  0  0  0999 V2000
    1.8755   19.1411   19.1242 N   0  0  0  0  0  0  0  0  0  0  0  0
    0.5456   18.7802   19.1734 C   0  0  0  0  0  0  0  0  0  0  0  0
   -0.2594   19.3553   19.8999 O   0  0  0  0  0  0  0  0  0  0  0  0
    2.5382   18.4588   18.7814 H   0  0  0  0  0  0  0  0  0  0  0  0
    0.1819   17.6563   18.3221 C   0  0  0  0  0  0  0  0  0  0  0  0
   -0.1934   16.3778   18.7287 C   0  0  0  0  0  0  0  0  0  0  0  0
   -0.4662   15.6831   17.5742 N   0  0  0  0  0  0  0  0  0  0  0  0
   -0.9316   14.3213   17.4432 C   0  0  0  0  0  0  0  0  0  0  0  0
   -0.2759   16.4065   16.4561 N   0  0  0  0  0  0  0  0  0  0  0  0
    0.0968   17.6010   16.9120 C   0  0  0  0  0  0  0  0  0  0  0  0
   -0.3052   15.7727   20.0966 C   0  0  0  0  0  0  0  0  0  0  0  0
    1.0303   15.4182   20.7129 C   0  0  0  0  0  0  0  0  0  0  0  0
    2.0534   16.3737   20.8043 C   0  0  0  0  0  0  0  0  0  0  0  0
    3.2844   16.0431   21.3744 C   0  0  0  0  0  0  0  0  0  0  0  0
    3.5037   14.7578   21.8657 C   0  0  0  0  0  0  0  0  0  0  0  0
    2.4916   13.8034   21.7924 C   0  0  0  0  0  0  0  0  0  0  0  0
    1.2606   14.1321   21.2228 C   0  0  0  0  0  0  0  0  0  0  0  0
    2.4083   20.1276   20.0539 C   0  0  0  0  0  0  0  0  0  0  0  0
    3.5787   20.9226   19.4452 C   0  0  0  0  0  0  0  0  0  0  0  0
    3.2052   22.3064   19.3550 O   0  0  0  0  0  0  0  0  0  0  0  0
    4.0262   22.7978   19.1741 H   0  0  0  0  0  0  0  0  0  0  0  0
    6.1439   19.5797   21.9386 C   0  0  0  0  0  0  0  0  0  0  0  0
    7.1604   20.5283   21.8309 C   0  0  0  0  0  0  0  0  0  0  0  0
    7.0234   21.6057   20.9520 C   0  0  0  0  0  0  0  0  0  0  0  0
    5.8719   21.7390   20.1765 C   0  0  0  0  0  0  0  0  0  0  0  0
    4.8421   20.7922   20.2666 C   0  0  0  0  0  0  0  0  0  0  0  0
    4.9916   19.7182   21.1580 C   0  0  0  0  0  0  0  0  0  0  0  0
    4.9456   18.1951   23.4550 C   0  0  0  0  0  0  0  0  0  0  0  0
    6.1497   18.4825   22.7554 O   0  0  0  0  0  0  0  0  0  0  0  0
 28 29  1  0  0  0
 29 22  1  0  0  0
 22 23  1  0  0  0
 23 24  2  0  0  0
 24 25  1  0  0  0
 25 26  2  0  0  0
 26 19  1  0  0  0
 19 20  1  0  0  0
 19 18  1  0  0  0
 18  1  1  0  0  0
  1  2  1  0  0  0
  2  3  2  0  0  0
  2  5  1  0  0  0
  5  6  2  0  0  0
  6 11  1  0  0  0
 11 12  1  0  0  0
 12 13  2  0  0  0
 13 14  1  0  0  0
 14 15  2  0  0  0
 15 16  1  0  0  0
 16 17  2  0  0  0
  6  7  1  0  0  0
  7  8  1  0  0  0
  7  9  1  0  0  0
  9 10  2  0  0  0
 26 27  1  0  0  0
 27 22  2  0  0  0
 10  5  1  0  0  0
 17 12  1  0  0  0
 20 21  1  0  0  0
  1  4  1  0  0  0
M  END
> <minimizedAffinity>
-8.03919

$$$$
OCNT-2310144


 27 30  0  0  0  0  0  0  0  0999 V2000
    2.0552   16.6914   20.8390 N   0  0  0  0  0  0  0  0  0  0  0  0
    1.1709   15.6419   20.6757 C   0  0  0  0  0  0  0  0  0  0  0  0
    1.0118   14.7462   21.4931 O   0  0  0  0  0  0  0  0  0  0  0  0
    2.2964   17.2199   20.0098 H   0  0  0  0  0  0  0  0  0  0  0  0
    0.4009   15.6675   19.4051 C   0  0  0  0  0  0  0  0  0  0  0  0
   -0.1288   14.4488   18.9550 C   0  0  0  0  0  0  0  0  0  0  0  0
   -0.8536   14.4136   17.7722 C   0  0  0  0  0  0  0  0  0  0  0  0
   -1.5698   12.7743   17.1610 Br  0  0  0  0  0  0  0  0  0  0  0  0
   -1.0566   15.5759   17.0325 C   0  0  0  0  0  0  0  0  0  0  0  0
   -0.5299   16.8032   17.4666 C   0  0  0  0  0  0  0  0  0  0  0  0
   -0.7457   17.9672   16.7103 C   0  0  0  0  0  0  0  0  0  0  0  0
   -0.2379   19.1975   17.1240 C   0  0  0  0  0  0  0  0  0  0  0  0
    0.4930   19.2811   18.3012 C   0  0  0  0  0  0  0  0  0  0  0  0
    0.7168   18.1336   19.0649 C   0  0  0  0  0  0  0  0  0  0  0  0
    0.2177   16.8691   18.6700 C   0  0  0  0  0  0  0  0  0  0  0  0
    5.0020   17.9131   22.4696 N   0  0  0  0  0  0  0  0  0  0  0  0
    5.3648   16.8977   21.4795 C   0  0  0  0  0  0  0  0  0  0  0  0
    4.2519   15.8725   21.6248 C   0  0  0  0  0  0  0  0  0  0  0  0
    3.0047   16.6956   21.9463 C   0  0  0  0  0  0  0  0  0  0  0  0
    3.5502   18.0978   22.2832 C   0  0  0  0  0  0  0  0  0  0  0  0
    8.1679   22.2729   20.5506 C   0  0  0  0  0  0  0  0  0  0  0  0
    7.3870   21.0538   20.7574 N   0  0  0  0  0  0  0  0  0  0  0  0
    6.0053   21.3791   21.1227 C   0  0  0  0  0  0  0  0  0  0  0  0
    5.1612   20.1155   21.2974 C   0  0  0  0  0  0  0  0  0  0  0  0
    5.7695   19.1721   22.3518 C   0  0  0  0  0  0  0  0  0  0  0  0
    7.2376   18.9020   21.9717 C   0  0  0  0  0  0  0  0  0  0  0  0
    8.0148   20.2042   21.7747 C   0  0  0  0  0  0  0  0  0  0  0  0
 21 22  1  0  0  0
 22 23  1  0  0  0
 23 24  1  0  0  0
 24 25  1  0  0  0
 25 16  1  0  0  0
 16 17  1  0  0  0
 17 18  1  0  0  0
 18 19  1  0  0  0
 19  1  1  0  0  0
  1  2  1  0  0  0
  2  3  2  0  0  0
  2  5  1  0  0  0
  5  6  2  0  0  0
  6  7  1  0  0  0
  7  8  1  0  0  0
  7  9  2  0  0  0
  9 10  1  0  0  0
 10 11  2  0  0  0
 11 12  1  0  0  0
 12 13  2  0  0  0
 13 14  1  0  0  0
 14 15  2  0  0  0
 19 20  1  0  0  0
 25 26  1  0  0  0
 26 27  1  0  0  0
 27 22  1  0  0  0
 20 16  1  0  0  0
 15  5  1  0  0  0
 15 10  1  0  0  0
  1  4  1  0  0  0
M  END
> <minimizedAffinity>
-5.46366

$$$$
OCNT-2310153


 26 28  0  0  0  0  0  0  0  0999 V2000
    2.3505   20.1356   18.6939 C   0  0  0  0  0  0  0  0  0  0  0  0
    1.1152   20.5206   19.5028 C   0  0  0  0  0  0  0  0  0  0  0  0
    0.5179   19.1727   19.9163 C   0  0  0  0  0  0  0  0  0  0  0  0
    0.9868   18.2278   18.8960 N   0  0  0  0  0  0  0  0  0  0  0  0
    1.8448   18.9064   17.9196 C   0  0  0  0  0  0  0  0  0  0  0  0
    0.3970   17.0015   18.6812 C   0  0  0  0  0  0  0  0  0  0  0  0
   -0.2999   16.7068   17.5018 C   0  0  0  0  0  0  0  0  0  0  0  0
   -0.8853   15.4550   17.2822 C   0  0  0  0  0  0  0  0  0  0  0  0
   -0.7829   14.4505   18.2408 C   0  0  0  0  0  0  0  0  0  0  0  0
   -0.0892   14.6979   19.4198 C   0  0  0  0  0  0  0  0  0  0  0  0
    0.4901   15.9616   19.6222 C   0  0  0  0  0  0  0  0  0  0  0  0
    0.1061   13.8180   20.4467 O   0  0  0  0  0  0  0  0  0  0  0  0
    1.1495   14.0937   21.3645 C   0  0  0  0  0  0  0  0  0  0  0  0
    0.6594   14.5217   22.5480 F   0  0  0  0  0  0  0  0  0  0  0  0
    1.8428   12.9546   21.5867 F   0  0  0  0  0  0  0  0  0  0  0  0
    2.0055   15.0143   20.8704 F   0  0  0  0  0  0  0  0  0  0  0  0
    4.2446   20.7516   20.1735 C   0  0  0  0  0  0  0  0  0  0  0  0
    4.0976   21.9441   19.9235 O   0  0  0  0  0  0  0  0  0  0  0  0
    3.4668   19.7893   19.5728 N   0  0  0  0  0  0  0  0  0  0  0  0
    3.4792   18.8399   19.9227 H   0  0  0  0  0  0  0  0  0  0  0  0
    7.1285   21.8274   20.5502 C   0  0  0  0  0  0  0  0  0  0  0  0
    6.4890   20.7511   21.2640 N   0  0  0  0  0  0  0  0  0  0  0  0
    7.1653   20.0941   22.2238 N   0  0  0  0  0  0  0  0  0  0  0  0
    6.3643   19.1595   22.7089 N   0  0  0  0  0  0  0  0  0  0  0  0
    5.1752   19.2419   22.0450 C   0  0  0  0  0  0  0  0  0  0  0  0
    5.2148   20.2608   21.1125 C   0  0  0  0  0  0  0  0  0  0  0  0
 21 22  1  0  0  0
 22 23  1  0  0  0
 23 24  2  0  0  0
 24 25  1  0  0  0
 25 26  2  0  0  0
 26 17  1  0  0  0
 17 18  2  0  0  0
 17 19  1  0  0  0
 19  1  1  0  0  0
  1  2  1  0  0  0
  2  3  1  0  0  0
  3  4  1  0  0  0
  4  6  1  0  0  0
  6  7  2  0  0  0
  7  8  1  0  0  0
  8  9  2  0  0  0
  9 10  1  0  0  0
 10 12  1  0  0  0
 12 13  1  0  0  0
 13 14  1  0  0  0
 13 15  1  0  0  0
 13 16  1  0  0  0
 10 11  2  0  0  0
  4  5  1  0  0  0
 26 22  1  0  0  0
  5  1  1  0  0  0
 11  6  1  0  0  0
 19 20  1  0  0  0
M  END
> <minimizedAffinity>
-8.35631

$$$$
OCNT-2310158


 22 24  0  0  0  0  0  0  0  0999 V2000
    1.0083   15.0616   21.9783 N   0  0  0  0  0  0  0  0  0  0  0  0
    2.4257   15.0755   22.3484 C   0  0  0  0  0  0  0  0  0  0  0  0
    2.9968   16.5029   22.2690 C   0  0  0  0  0  0  0  0  0  0  0  0
    2.7476   17.1682   20.9826 N   0  0  0  0  0  0  0  0  0  0  0  0
    3.4806   18.2358   20.4796 C   0  0  0  0  0  0  0  0  0  0  0  0
    3.3822   18.5788   19.3051 O   0  0  0  0  0  0  0  0  0  0  0  0
    4.2898   18.8548   21.4045 N   0  0  0  0  0  0  0  0  0  0  0  0
    1.7806   16.5122   20.0981 C   0  0  0  0  0  0  0  0  0  0  0  0
    0.5853   15.9107   20.8596 C   0  0  0  0  0  0  0  0  0  0  0  0
    4.0809   18.6712   22.3719 H   0  0  0  0  0  0  0  0  0  0  0  0
   -2.3526   12.2615   24.7732 C   0  0  0  0  0  0  0  0  0  0  0  0
   -1.3507   12.7973   23.8193 C   0  0  0  0  0  0  0  0  0  0  0  0
   -0.7713   12.1021   22.8684 N   0  0  0  0  0  0  0  0  0  0  0  0
    0.1152   12.8671   22.1415 N   0  0  0  0  0  0  0  0  0  0  0  0
    0.1907   14.1241   22.5415 C   0  0  0  0  0  0  0  0  0  0  0  0
   -0.8531   14.4335   23.8931 S   0  0  0  0  0  0  0  0  0  0  0  0
    5.2240   19.8828   21.1569 C   0  0  0  0  0  0  0  0  0  0  0  0
    6.4969   19.7536   21.7188 C   0  0  0  0  0  0  0  0  0  0  0  0
    7.4619   20.7344   21.4943 C   0  0  0  0  0  0  0  0  0  0  0  0
    7.1245   21.8194   20.7047 C   0  0  0  0  0  0  0  0  0  0  0  0
    5.9120   21.9797   20.1376 N   0  0  0  0  0  0  0  0  0  0  0  0
    4.9887   21.0106   20.3751 C   0  0  0  0  0  0  0  0  0  0  0  0
 11 12  1  0  0  0
 12 13  2  0  0  0
 13 14  1  0  0  0
 14 15  2  0  0  0
 15  1  1  0  0  0
  1  2  1  0  0  0
  2  3  1  0  0  0
  3  4  1  0  0  0
  4  5  1  0  0  0
  5  6  2  0  0  0
  5  7  1  0  0  0
  7 17  1  0  0  0
 17 18  1  0  0  0
 18 19  2  0  0  0
 19 20  1  0  0  0
 20 21  2  0  0  0
 21 22  1  0  0  0
  4  8  1  0  0  0
  8  9  1  0  0  0
 15 16  1  0  0  0
 16 12  1  0  0  0
  9  1  1  0  0  0
 22 17  2  0  0  0
  7 10  1  0  0  0
M  END
> <minimizedAffinity>
-2.34412

$$$$
OCNT-2310161


 27 30  0  0  0  0  0  0  0  0999 V2000
    1.9835   15.0970   22.4886 N   0  0  0  0  0  0  0  0  0  0  0  0
    2.0937   14.8361   23.4684 H   0  0  0  0  0  0  0  0  0  0  0  0
    1.0208   14.1424   21.8983 C   0  0  0  0  0  0  0  0  0  0  0  0
   -2.0438   13.0980   24.7950 C   0  0  0  0  0  0  0  0  0  0  0  0
   -1.4925   14.3760   24.7751 C   0  0  0  0  0  0  0  0  0  0  0  0
   -0.5140   14.6998   23.8334 C   0  0  0  0  0  0  0  0  0  0  0  0
   -0.0747   13.7506   22.8928 C   0  0  0  0  0  0  0  0  0  0  0  0
   -0.6333   12.4613   22.9370 C   0  0  0  0  0  0  0  0  0  0  0  0
   -1.6142   12.1409   23.8787 C   0  0  0  0  0  0  0  0  0  0  0  0
    0.4283   14.6600   20.6118 C   0  0  0  0  0  0  0  0  0  0  0  0
   -0.0844   13.9396   19.6294 N   0  0  0  0  0  0  0  0  0  0  0  0
   -0.4904   14.8429   18.6816 C   0  0  0  0  0  0  0  0  0  0  0  0
   -0.2145   16.1285   19.0817 C   0  0  0  0  0  0  0  0  0  0  0  0
    0.3845   15.9997   20.3027 N   0  0  0  0  0  0  0  0  0  0  0  0
    0.7462   16.7421   20.8870 H   0  0  0  0  0  0  0  0  0  0  0  0
    3.3028   14.9824   21.8561 C   0  0  0  0  0  0  0  0  0  0  0  0
    3.8849   16.3546   21.6023 C   0  0  0  0  0  0  0  0  0  0  0  0
    3.1658   17.3062   20.8689 C   0  0  0  0  0  0  0  0  0  0  0  0
    3.6968   18.5793   20.6291 C   0  0  0  0  0  0  0  0  0  0  0  0
    4.9602   18.9267   21.1284 C   0  0  0  0  0  0  0  0  0  0  0  0
    5.6781   17.9769   21.8709 C   0  0  0  0  0  0  0  0  0  0  0  0
    5.1428   16.7047   22.1043 C   0  0  0  0  0  0  0  0  0  0  0  0
    5.5107   20.2191   20.8827 N   0  0  0  0  0  0  0  0  0  0  0  0
    6.7954   20.6491   21.1470 C   0  0  0  0  0  0  0  0  0  0  0  0
    6.8595   21.9573   20.7291 C   0  0  0  0  0  0  0  0  0  0  0  0
    5.6600   22.3628   20.2222 N   0  0  0  0  0  0  0  0  0  0  0  0
    4.8749   21.3114   20.3271 C   0  0  0  0  0  0  0  0  0  0  0  0
  4  5  2  0  0  0
  5  6  1  0  0  0
  6  7  2  0  0  0
  7  3  1  0  0  0
  3  1  1  0  0  0
  1 16  1  0  0  0
 16 17  1  0  0  0
 17 18  1  0  0  0
 18 19  2  0  0  0
 19 20  1  0  0  0
 20 23  1  0  0  0
 23 24  1  0  0  0
 24 25  2  0  0  0
 25 26  1  0  0  0
 26 27  2  0  0  0
 20 21  2  0  0  0
 21 22  1  0  0  0
  3 10  1  0  0  0
 10 11  2  0  0  0
 11 12  1  0  0  0
 12 13  2  0  0  0
 13 14  1  0  0  0
  7  8  1  0  0  0
  8  9  2  0  0  0
  9  4  1  0  0  0
 22 17  2  0  0  0
 14 10  1  0  0  0
 27 23  1  0  0  0
  1  2  1  0  0  0
 14 15  1  0  0  0
M  END
> <minimizedAffinity>
-7.82880

$$$$
OCNT-2310163


 25 27  0  0  0  0  0  0  0  0999 V2000
    1.2235   17.8140   19.1031 C   0  0  0  0  0  0  0  0  0  0  0  0
    0.7431   19.1027   19.2330 C   0  0  0  0  0  0  0  0  0  0  0  0
    1.7769   20.0488   19.4905 C   0  0  0  0  0  0  0  0  0  0  0  0
    3.0262   19.4601   19.5612 C   0  0  0  0  0  0  0  0  0  0  0  0
    2.9296   17.7741   19.2764 S   0  0  0  0  0  0  0  0  0  0  0  0
    4.3275   20.0745   19.8011 C   0  0  0  0  0  0  0  0  0  0  0  0
    5.1375   20.3413   18.9145 O   0  0  0  0  0  0  0  0  0  0  0  0
    4.5605   20.4623   21.1393 N   0  0  0  0  0  0  0  0  0  0  0  0
    5.1558   21.7991   21.2235 C   0  0  0  0  0  0  0  0  0  0  0  0
    5.3568   22.3268   22.6379 C   0  0  0  0  0  0  0  0  0  0  0  0
    6.4664   21.6356   23.4316 C   0  0  0  0  0  0  0  0  0  0  0  0
    7.2113   20.6352   22.7014 N   0  0  0  0  0  0  0  0  0  0  0  0
    6.6735   19.4943   22.1552 C   0  0  0  0  0  0  0  0  0  0  0  0
    7.4264   18.5829   21.8190 O   0  0  0  0  0  0  0  0  0  0  0  0
    5.1283   19.4263   22.0457 C   0  0  0  0  0  0  0  0  0  0  0  0
    4.7018   17.9792   21.7744 C   0  0  0  0  0  0  0  0  0  0  0  0
    8.2181   20.5867   22.8147 H   0  0  0  0  0  0  0  0  0  0  0  0
    0.5204   15.4725   19.7130 C   0  0  0  0  0  0  0  0  0  0  0  0
   -0.1910   14.3069   19.3966 C   0  0  0  0  0  0  0  0  0  0  0  0
   -0.9442   14.2289   18.2227 C   0  0  0  0  0  0  0  0  0  0  0  0
   -0.9913   15.3104   17.3504 C   0  0  0  0  0  0  0  0  0  0  0  0
   -0.2831   16.4736   17.6504 C   0  0  0  0  0  0  0  0  0  0  0  0
    0.4777   16.5742   18.8298 C   0  0  0  0  0  0  0  0  0  0  0  0
    1.6283   14.4419   21.5630 C   0  0  0  0  0  0  0  0  0  0  0  0
    1.2794   15.6194   20.8483 O   0  0  0  0  0  0  0  0  0  0  0  0
 24 25  1  0  0  0
 25 18  1  0  0  0
 18 19  2  0  0  0
 19 20  1  0  0  0
 20 21  2  0  0  0
 21 22  1  0  0  0
 22 23  2  0  0  0
 23  1  1  0  0  0
  1  2  2  0  0  0
  2  3  1  0  0  0
  3  4  2  0  0  0
  4  6  1  0  0  0
  6  7  2  0  0  0
  6  8  1  0  0  0
  8  9  1  0  0  0
  9 10  1  0  0  0
 10 11  1  0  0  0
 11 12  1  0  0  0
 12 13  1  0  0  0
 13 14  2  0  0  0
 13 15  1  0  0  0
 15 16  1  0  0  0
  4  5  1  0  0  0
 23 18  1  0  0  0
  5  1  1  0  0  0
 15  8  1  0  0  0
 12 17  1  0  0  0
M  END
> <minimizedAffinity>
-6.13276

$$$$
OCNT-2310174


 26 30  0  0  0  0  0  0  0  0999 V2000
    4.3914   22.6478   19.2563 Cl  0  0  0  0  0  0  0  0  0  0  0  0
    5.3479   21.6335   20.2472 C   0  0  0  0  0  0  0  0  0  0  0  0
    6.5977   22.0341   20.7166 C   0  0  0  0  0  0  0  0  0  0  0  0
    7.3384   21.1714   21.5182 C   0  0  0  0  0  0  0  0  0  0  0  0
    6.8467   19.9061   21.8620 C   0  0  0  0  0  0  0  0  0  0  0  0
    5.5806   19.5279   21.3812 C   0  0  0  0  0  0  0  0  0  0  0  0
    4.8117   20.3714   20.5676 C   0  0  0  0  0  0  0  0  0  0  0  0
    3.6098   19.6674   20.2591 C   0  0  0  0  0  0  0  0  0  0  0  0
    3.6636   18.4337   20.8741 C   0  0  0  0  0  0  0  0  0  0  0  0
    2.6832   17.3080   20.9041 C   0  0  0  0  0  0  0  0  0  0  0  0
    3.3183   16.0370   21.2970 N   0  0  0  0  0  0  0  0  0  0  0  0
    4.1076   16.2293   22.5306 C   0  0  0  0  0  0  0  0  0  0  0  0
    5.2761   17.1932   22.2892 C   0  0  0  0  0  0  0  0  0  0  0  0
    4.8548   18.3725   21.5536 N   0  0  0  0  0  0  0  0  0  0  0  0
    2.2801   14.9989   21.4680 C   0  0  0  0  0  0  0  0  0  0  0  0
    1.1931   15.0753   20.4489 C   0  0  0  0  0  0  0  0  0  0  0  0
    0.3503   14.1435   20.0539 N   0  0  0  0  0  0  0  0  0  0  0  0
   -0.4370   14.7249   19.0809 N   0  0  0  0  0  0  0  0  0  0  0  0
   -0.0238   15.9713   18.9534 C   0  0  0  0  0  0  0  0  0  0  0  0
    1.0116   16.2691   19.8022 O   0  0  0  0  0  0  0  0  0  0  0  0
   -0.4979   17.0321   18.0737 C   0  0  0  0  0  0  0  0  0  0  0  0
    0.4290   17.8121   17.3648 C   0  0  0  0  0  0  0  0  0  0  0  0
    0.0017   18.8353   16.5138 C   0  0  0  0  0  0  0  0  0  0  0  0
   -1.3590   19.0912   16.3601 C   0  0  0  0  0  0  0  0  0  0  0  0
   -2.2927   18.3268   17.0568 C   0  0  0  0  0  0  0  0  0  0  0  0
   -1.8652   17.3043   17.9087 C   0  0  0  0  0  0  0  0  0  0  0  0
  1  2  1  0  0  0
  2  3  1  0  0  0
  3  4  2  0  0  0
  4  5  1  0  0  0
  5  6  2  0  0  0
  6  7  1  0  0  0
  7  8  1  0  0  0
  8  9  2  0  0  0
  9 10  1  0  0  0
 10 11  1  0  0  0
 11 15  1  0  0  0
 15 16  1  0  0  0
 16 17  2  0  0  0
 17 18  1  0  0  0
 18 19  2  0  0  0
 19 21  1  0  0  0
 21 22  2  0  0  0
 22 23  1  0  0  0
 23 24  2  0  0  0
 24 25  1  0  0  0
 25 26  2  0  0  0
 19 20  1  0  0  0
 11 12  1  0  0  0
 12 13  1  0  0  0
 13 14  1  0  0  0
  7  2  2  0  0  0
 14  9  1  0  0  0
 14  6  1  0  0  0
 20 16  1  0  0  0
 26 21  1  0  0  0
M  END
> <minimizedAffinity>
-9.14147

$$$$
OCNT-2310175


 21 23  0  0  0  0  0  0  0  0999 V2000
    0.4516   17.1046   18.9912 N   0  0  0  0  0  0  0  0  0  0  0  0
   -0.9810   17.3051   19.1994 C   0  0  0  0  0  0  0  0  0  0  0  0
   -1.6601   17.6703   17.8794 C   0  0  0  0  0  0  0  0  0  0  0  0
   -0.9719   18.8389   17.1850 C   0  0  0  0  0  0  0  0  0  0  0  0
    0.5196   18.5583   17.0215 C   0  0  0  0  0  0  0  0  0  0  0  0
    1.2123   18.1952   18.3515 C   0  0  0  0  0  0  0  0  0  0  0  0
    2.9355   16.1138   21.3741 C   0  0  0  0  0  0  0  0  0  0  0  0
    2.4585   14.9212   21.8663 C   0  0  0  0  0  0  0  0  0  0  0  0
    1.2650   14.5185   21.3358 C   0  0  0  0  0  0  0  0  0  0  0  0
    0.5935   15.2196   20.4059 N   0  0  0  0  0  0  0  0  0  0  0  0
    1.1210   16.3758   19.9695 C   0  0  0  0  0  0  0  0  0  0  0  0
    2.2851   16.8396   20.4375 N   0  0  0  0  0  0  0  0  0  0  0  0
    4.2257   16.7072   21.8531 C   0  0  0  0  0  0  0  0  0  0  0  0
    5.3355   16.3483   21.4909 O   0  0  0  0  0  0  0  0  0  0  0  0
    5.1056   18.5594   22.9776 C   0  0  0  0  0  0  0  0  0  0  0  0
    3.9829   17.7056   22.7476 O   0  0  0  0  0  0  0  0  0  0  0  0
    1.3620   19.4054   19.3044 C   0  0  0  0  0  0  0  0  0  0  0  0
    2.6577   20.1671   19.0439 C   0  0  0  0  0  0  0  0  0  0  0  0
    3.9673   19.5633   19.6227 C   0  0  0  0  0  0  0  0  0  0  0  0
    4.4129   21.0075   19.9272 C   0  0  0  0  0  0  0  0  0  0  0  0
    2.9175   21.3810   19.9776 C   0  0  0  0  0  0  0  0  0  0  0  0
 15 16  1  0  0  0
 16 13  1  0  0  0
 13 14  2  0  0  0
 13  7  1  0  0  0
  7  8  1  0  0  0
  8  9  2  0  0  0
  9 10  1  0  0  0
 10 11  2  0  0  0
 11  1  1  0  0  0
  1  2  1  0  0  0
  2  3  1  0  0  0
  3  4  1  0  0  0
  4  5  1  0  0  0
  5  6  1  0  0  0
  6 17  1  0  0  0
 17 18  1  0  0  0
 18 19  1  0  0  0
 19 20  1  0  0  0
 20 21  1  0  0  0
 11 12  1  0  0  0
 12  7  2  0  0  0
  6  1  1  0  0  0
 21 18  1  0  0  0
M  END
> <minimizedAffinity>
-8.19896

$$$$
OCNT-2310178


 27 29  0  0  0  0  0  0  0  0999 V2000
    4.2272   17.8593   19.1051 O   0  0  0  0  0  0  0  0  0  0  0  0
    3.3281   18.0858   19.9070 C   0  0  0  0  0  0  0  0  0  0  0  0
    3.4194   17.7131   21.2306 N   0  0  0  0  0  0  0  0  0  0  0  0
    2.7878   18.1391   21.8969 H   0  0  0  0  0  0  0  0  0  0  0  0
    2.0926   18.7717   19.5467 C   0  0  0  0  0  0  0  0  0  0  0  0
    1.8995   20.1419   19.4707 C   0  0  0  0  0  0  0  0  0  0  0  0
    0.5913   20.3329   19.1559 N   0  0  0  0  0  0  0  0  0  0  0  0
   -0.0952   19.1968   19.0179 N   0  0  0  0  0  0  0  0  0  0  0  0
    0.8030   18.2191   19.2387 C   0  0  0  0  0  0  0  0  0  0  0  0
    0.0958   21.2098   19.0285 H   0  0  0  0  0  0  0  0  0  0  0  0
    0.3777   16.8251   19.1375 C   0  0  0  0  0  0  0  0  0  0  0  0
   -0.3641   16.3905   18.0409 C   0  0  0  0  0  0  0  0  0  0  0  0
   -0.7941   15.1152   17.8559 N   0  0  0  0  0  0  0  0  0  0  0  0
   -0.4564   14.2249   18.8116 C   0  0  0  0  0  0  0  0  0  0  0  0
    0.2925   14.5460   19.9320 C   0  0  0  0  0  0  0  0  0  0  0  0
    0.7191   15.8643   20.0911 C   0  0  0  0  0  0  0  0  0  0  0  0
    4.6599   17.1965   21.7875 C   0  0  0  0  0  0  0  0  0  0  0  0
    5.2843   18.1985   22.7723 C   0  0  0  0  0  0  0  0  0  0  0  0
    4.3080   18.5563   23.7623 O   0  0  0  0  0  0  0  0  0  0  0  0
    4.6058   19.3928   24.1627 H   0  0  0  0  0  0  0  0  0  0  0  0
    5.8020   19.4417   22.0835 C   0  0  0  0  0  0  0  0  0  0  0  0
    7.1644   19.7710   22.1496 C   0  0  0  0  0  0  0  0  0  0  0  0
    7.6525   20.9122   21.5086 C   0  0  0  0  0  0  0  0  0  0  0  0
    6.7858   21.7368   20.7924 C   0  0  0  0  0  0  0  0  0  0  0  0
    5.4329   21.4164   20.7178 C   0  0  0  0  0  0  0  0  0  0  0  0
    4.3613   22.4319   19.8344 Cl  0  0  0  0  0  0  0  0  0  0  0  0
    4.9393   20.2779   21.3550 C   0  0  0  0  0  0  0  0  0  0  0  0
  1  2  2  0  0  0
  2  3  1  0  0  0
  3 17  1  0  0  0
 17 18  1  0  0  0
 18 19  1  0  0  0
 18 21  1  0  0  0
 21 22  2  0  0  0
 22 23  1  0  0  0
 23 24  2  0  0  0
 24 25  1  0  0  0
 25 26  1  0  0  0
 25 27  2  0  0  0
  2  5  1  0  0  0
  5  6  2  0  0  0
  6  7  1  0  0  0
  7  8  1  0  0  0
  8  9  2  0  0  0
  9 11  1  0  0  0
 11 12  2  0  0  0
 12 13  1  0  0  0
 13 14  2  0  0  0
 14 15  1  0  0  0
 15 16  2  0  0  0
 27 21  1  0  0  0
  9  5  1  0  0  0
 16 11  1  0  0  0
  3  4  1  0  0  0
 19 20  1  0  0  0
  7 10  1  0  0  0
M  END
> <minimizedAffinity>
-10.39697

$$$$
OCNT-2310181


 23 26  0  0  0  0  0  0  0  0999 V2000
    2.8360   19.0139   19.8946 O   0  0  0  0  0  0  0  0  0  0  0  0
    3.8257   19.0199   20.6113 C   0  0  0  0  0  0  0  0  0  0  0  0
    5.0805   19.8859   20.3984 C   0  0  0  0  0  0  0  0  0  0  0  0
    4.7805   21.3522   20.1204 C   0  0  0  0  0  0  0  0  0  0  0  0
    5.9258   22.2744   20.5693 C   0  0  0  0  0  0  0  0  0  0  0  0
    7.2492   21.5222   20.7291 C   0  0  0  0  0  0  0  0  0  0  0  0
    7.1395   20.3631   21.7293 C   0  0  0  0  0  0  0  0  0  0  0  0
    5.7892   19.7932   21.6988 N   0  0  0  0  0  0  0  0  0  0  0  0
    5.5116   18.2942   22.3976 S   0  0  0  0  0  0  0  0  0  0  0  0
    5.4403   18.4422   23.8274 O   0  0  0  0  0  0  0  0  0  0  0  0
    6.3560   17.3220   21.7481 O   0  0  0  0  0  0  0  0  0  0  0  0
    3.9854   18.1788   21.7359 N   0  0  0  0  0  0  0  0  0  0  0  0
    3.1021   17.0909   22.1439 C   0  0  0  0  0  0  0  0  0  0  0  0
    2.8775   16.1447   20.9666 C   0  0  0  0  0  0  0  0  0  0  0  0
    1.4053   15.7570   20.8066 C   0  0  0  0  0  0  0  0  0  0  0  0
    1.1840   14.2317   20.6937 C   0  0  0  0  0  0  0  0  0  0  0  0
   -0.1154   14.0365   19.9016 C   0  0  0  0  0  0  0  0  0  0  0  0
   -0.0971   15.2441   19.0189 C   0  0  0  0  0  0  0  0  0  0  0  0
   -0.8372   15.4610   17.8683 C   0  0  0  0  0  0  0  0  0  0  0  0
   -0.6962   16.6837   17.2103 C   0  0  0  0  0  0  0  0  0  0  0  0
    0.1646   17.6700   17.7146 C   0  0  0  0  0  0  0  0  0  0  0  0
    0.8973   17.4470   18.8830 C   0  0  0  0  0  0  0  0  0  0  0  0
    0.7662   16.2249   19.5248 C   0  0  0  0  0  0  0  0  0  0  0  0
  1  2  2  0  0  0
  2  3  1  0  0  0
  3  4  1  0  0  0
  4  5  1  0  0  0
  5  6  1  0  0  0
  6  7  1  0  0  0
  7  8  1  0  0  0
  8  9  1  0  0  0
  9 10  2  0  0  0
  9 11  2  0  0  0
  9 12  1  0  0  0
 12 13  1  0  0  0
 13 14  1  0  0  0
 14 15  1  0  0  0
 15 16  1  0  0  0
 16 17  1  0  0  0
 17 18  1  0  0  0
 18 19  2  0  0  0
 19 20  1  0  0  0
 20 21  2  0  0  0
 21 22  1  0  0  0
 22 23  2  0  0  0
 12  2  1  0  0  0
 23 15  1  0  0  0
  8  3  1  0  0  0
 23 18  1  0  0  0
M  END
> <minimizedAffinity>
-10.63714

$$$$
OCNT-2310182


 24 27  0  0  0  0  0  0  0  0999 V2000
   -0.0397   18.8265   18.3073 C   0  0  0  0  0  0  0  0  0  0  0  0
    0.2955   20.1960   18.3105 C   0  0  0  0  0  0  0  0  0  0  0  0
    1.4969   20.6583   18.8664 C   0  0  0  0  0  0  0  0  0  0  0  0
    2.3722   19.7401   19.4185 C   0  0  0  0  0  0  0  0  0  0  0  0
    2.0539   18.3827   19.4130 C   0  0  0  0  0  0  0  0  0  0  0  0
    0.8640   17.9112   18.8659 C   0  0  0  0  0  0  0  0  0  0  0  0
    3.1306   17.5662   20.0464 C   0  0  0  0  0  0  0  0  0  0  0  0
    4.1587   18.6346   20.4371 C   0  0  0  0  0  0  0  0  0  0  0  0
    3.6281   19.9479   20.0291 N   0  0  0  0  0  0  0  0  0  0  0  0
    4.2446   21.1949   20.2073 C   0  0  0  0  0  0  0  0  0  0  0  0
    3.7139   22.2453   19.8369 O   0  0  0  0  0  0  0  0  0  0  0  0
    5.5845   21.2537   20.8679 C   0  0  0  0  0  0  0  0  0  0  0  0
    5.8489   20.9923   22.1653 N   0  0  0  0  0  0  0  0  0  0  0  0
    7.1784   21.1775   22.2397 N   0  0  0  0  0  0  0  0  0  0  0  0
    7.8535   20.9957   23.4986 C   0  0  0  0  0  0  0  0  0  0  0  0
    7.7017   21.5504   21.0369 C   0  0  0  0  0  0  0  0  0  0  0  0
    9.1309   21.8441   20.7921 C   0  0  0  0  0  0  0  0  0  0  0  0
    6.7268   21.6025   20.1581 N   0  0  0  0  0  0  0  0  0  0  0  0
   -4.1186   19.2935   15.5525 C   0  0  0  0  0  0  0  0  0  0  0  0
   -3.1261   18.6678   16.4672 C   0  0  0  0  0  0  0  0  0  0  0  0
   -2.0212   19.2516   16.8762 N   0  0  0  0  0  0  0  0  0  0  0  0
   -1.3084   18.4047   17.7153 C   0  0  0  0  0  0  0  0  0  0  0  0
   -1.9133   17.1818   17.9372 C   0  0  0  0  0  0  0  0  0  0  0  0
   -3.3877   17.0805   17.0664 S   0  0  0  0  0  0  0  0  0  0  0  0
 19 20  1  0  0  0
 20 21  2  0  0  0
 21 22  1  0  0  0
 22  1  1  0  0  0
  1  2  1  0  0  0
  2  3  2  0  0  0
  3  4  1  0  0  0
  4  5  2  0  0  0
  5  6  1  0  0  0
  5  7  1  0  0  0
  7  8  1  0  0  0
  8  9  1  0  0  0
  9 10  1  0  0  0
 10 11  2  0  0  0
 10 12  1  0  0  0
 12 13  2  0  0  0
 13 14  1  0  0  0
 14 15  1  0  0  0
 14 16  1  0  0  0
 16 17  1  0  0  0
 16 18  2  0  0  0
 22 23  2  0  0  0
 23 24  1  0  0  0
 24 20  1  0  0  0
  6  1  2  0  0  0
 18 12  1  0  0  0
  9  4  1  0  0  0
M  END
> <minimizedAffinity>
2.88734

$$$$
OCNT-2310186


 21 23  0  0  0  0  0  0  0  0999 V2000
    1.4775   17.5303   20.1869 N   0  0  0  0  0  0  0  0  0  0  0  0
    1.6704   18.9705   19.8954 C   0  0  0  0  0  0  0  0  0  0  0  0
    3.1579   19.3748   19.7502 C   0  0  0  0  0  0  0  0  0  0  0  0
    3.9562   18.9377   20.8984 N   0  0  0  0  0  0  0  0  0  0  0  0
    3.5716   17.6622   21.5267 C   0  0  0  0  0  0  0  0  0  0  0  0
    2.7057   16.8060   20.5788 C   0  0  0  0  0  0  0  0  0  0  0  0
   -0.6431   16.8746   17.3723 C   0  0  0  0  0  0  0  0  0  0  0  0
   -1.0086   15.5889   17.4653 N   0  0  0  0  0  0  0  0  0  0  0  0
   -0.4946   14.9209   18.5150 C   0  0  0  0  0  0  0  0  0  0  0  0
    0.3365   15.4864   19.4612 C   0  0  0  0  0  0  0  0  0  0  0  0
    0.9694   14.4856   20.7128 Cl  0  0  0  0  0  0  0  0  0  0  0  0
    0.6429   16.8386   19.2941 C   0  0  0  0  0  0  0  0  0  0  0  0
    0.1573   17.5206   18.2328 N   0  0  0  0  0  0  0  0  0  0  0  0
   -1.9647   18.6977   16.7518 C   0  0  0  0  0  0  0  0  0  0  0  0
   -1.1044   17.6485   16.3303 O   0  0  0  0  0  0  0  0  0  0  0  0
    5.1709   19.4718   21.2088 C   0  0  0  0  0  0  0  0  0  0  0  0
    5.6861   20.5027   20.5693 N   0  0  0  0  0  0  0  0  0  0  0  0
    6.9279   20.8515   21.0697 C   0  0  0  0  0  0  0  0  0  0  0  0
    7.6426   21.9957   20.4525 C   0  0  0  0  0  0  0  0  0  0  0  0
    7.3646   20.0666   22.1141 C   0  0  0  0  0  0  0  0  0  0  0  0
    6.1982   18.8722   22.4722 S   0  0  0  0  0  0  0  0  0  0  0  0
 14 15  1  0  0  0
 15  7  1  0  0  0
  7  8  2  0  0  0
  8  9  1  0  0  0
  9 10  2  0  0  0
 10 11  1  0  0  0
 10 12  1  0  0  0
 12  1  1  0  0  0
  1  2  1  0  0  0
  2  3  1  0  0  0
  3  4  1  0  0  0
  4 16  1  0  0  0
 16 17  2  0  0  0
 17 18  1  0  0  0
 18 19  1  0  0  0
 18 20  2  0  0  0
 20 21  1  0  0  0
  4  5  1  0  0  0
  5  6  1  0  0  0
 12 13  2  0  0  0
 13  7  1  0  0  0
  6  1  1  0  0  0
 21 16  1  0  0  0
M  END
> <minimizedAffinity>
-8.00978

$$$$
OCNT-2310201


 26 28  0  0  0  0  0  0  0  0999 V2000
    2.2498   15.0607   22.0583 C   0  0  0  0  0  0  0  0  0  0  0  0
   -1.4627   18.6822   16.1019 C   0  0  0  0  0  0  0  0  0  0  0  0
   -0.6919   18.1276   17.2604 C   0  0  0  0  0  0  0  0  0  0  0  0
   -0.7471   16.8386   17.6313 C   0  0  0  0  0  0  0  0  0  0  0  0
   -0.0228   16.3467   18.7121 N   0  0  0  0  0  0  0  0  0  0  0  0
   -0.1219   15.0039   19.0393 C   0  0  0  0  0  0  0  0  0  0  0  0
   -0.8012   14.1674   18.4452 O   0  0  0  0  0  0  0  0  0  0  0  0
    0.6708   14.5696   20.2001 C   0  0  0  0  0  0  0  0  0  0  0  0
    1.4267   15.4651   20.8456 C   0  0  0  0  0  0  0  0  0  0  0  0
    1.5040   16.7906   20.4814 N   0  0  0  0  0  0  0  0  0  0  0  0
    0.7986   17.1773   19.4624 C   0  0  0  0  0  0  0  0  0  0  0  0
    0.8631   18.6070   19.0531 C   0  0  0  0  0  0  0  0  0  0  0  0
    0.1487   19.0371   18.0064 C   0  0  0  0  0  0  0  0  0  0  0  0
    3.6574   15.1031   21.6755 N   0  0  0  0  0  0  0  0  0  0  0  0
    4.1377   14.2768   22.0333 H   0  0  0  0  0  0  0  0  0  0  0  0
    4.3949   16.2680   21.9130 C   0  0  0  0  0  0  0  0  0  0  0  0
    3.8666   17.4097   22.5233 C   0  0  0  0  0  0  0  0  0  0  0  0
    4.6302   18.5752   22.6689 C   0  0  0  0  0  0  0  0  0  0  0  0
    5.9366   18.6390   22.1758 C   0  0  0  0  0  0  0  0  0  0  0  0
    6.4589   17.5172   21.5265 C   0  0  0  0  0  0  0  0  0  0  0  0
    5.6901   16.3568   21.3859 C   0  0  0  0  0  0  0  0  0  0  0  0
    6.7571   19.8957   22.3239 C   0  0  0  0  0  0  0  0  0  0  0  0
    6.7624   20.7884   21.0751 C   0  0  0  0  0  0  0  0  0  0  0  0
    5.7160   21.9212   21.0680 C   0  0  0  0  0  0  0  0  0  0  0  0
    5.2013   22.1559   22.4912 C   0  0  0  0  0  0  0  0  0  0  0  0
    4.5384   21.6203   20.1399 C   0  0  0  0  0  0  0  0  0  0  0  0
  2  3  1  0  0  0
  3  4  2  0  0  0
  4  5  1  0  0  0
  5  6  1  0  0  0
  6  7  2  0  0  0
  6  8  1  0  0  0
  8  9  2  0  0  0
  9  1  1  0  0  0
  1 14  1  0  0  0
 14 16  1  0  0  0
 16 17  1  0  0  0
 17 18  2  0  0  0
 18 19  1  0  0  0
 19 22  1  0  0  0
 22 23  1  0  0  0
 23 24  1  0  0  0
 24 25  1  0  0  0
 24 26  1  0  0  0
 19 20  2  0  0  0
 20 21  1  0  0  0
  9 10  1  0  0  0
 10 11  2  0  0  0
 11 12  1  0  0  0
 12 13  2  0  0  0
 13  3  1  0  0  0
 11  5  1  0  0  0
 21 16  2  0  0  0
 14 15  1  0  0  0
M  END
> <minimizedAffinity>
-9.16482

$$$$
OCNT-2310202


 25 28  0  0  0  0  0  0  0  0999 V2000
    0.9969   18.6197   18.9441 C   0  0  0  0  0  0  0  0  0  0  0  0
    0.2941   19.7631   18.9343 N   0  0  0  0  0  0  0  0  0  0  0  0
    1.2240   20.7262   19.3131 O   0  0  0  0  0  0  0  0  0  0  0  0
    2.4113   20.0773   19.5175 C   0  0  0  0  0  0  0  0  0  0  0  0
    2.3172   18.7827   19.3007 N   0  0  0  0  0  0  0  0  0  0  0  0
    0.0405   13.8221   20.0446 C   0  0  0  0  0  0  0  0  0  0  0  0
   -0.0470   14.9958   19.1153 C   0  0  0  0  0  0  0  0  0  0  0  0
    0.5031   16.2328   19.4835 C   0  0  0  0  0  0  0  0  0  0  0  0
    0.4389   17.3211   18.6102 C   0  0  0  0  0  0  0  0  0  0  0  0
   -0.1866   17.1076   17.3901 C   0  0  0  0  0  0  0  0  0  0  0  0
   -0.7341   15.9278   17.0043 N   0  0  0  0  0  0  0  0  0  0  0  0
   -0.6627   14.8991   17.8665 C   0  0  0  0  0  0  0  0  0  0  0  0
   -1.2238   13.7074   17.4170 N   0  0  0  0  0  0  0  0  0  0  0  0
   -1.6339   13.9056   16.5071 H   0  0  0  0  0  0  0  0  0  0  0  0
   -1.9143   13.3531   18.0675 H   0  0  0  0  0  0  0  0  0  0  0  0
    3.7137   20.7904   19.9531 C   0  0  0  0  0  0  0  0  0  0  0  0
    4.0408   22.0832   19.6185 C   0  0  0  0  0  0  0  0  0  0  0  0
    5.2463   22.4175   20.1509 O   0  0  0  0  0  0  0  0  0  0  0  0
    5.6952   21.3274   20.8339 C   0  0  0  0  0  0  0  0  0  0  0  0
    6.9014   21.2541   21.5295 C   0  0  0  0  0  0  0  0  0  0  0  0
    7.1793   20.0409   22.1668 C   0  0  0  0  0  0  0  0  0  0  0  0
    6.2816   18.9779   22.0949 C   0  0  0  0  0  0  0  0  0  0  0  0
    6.5820   17.8305   22.7182 F   0  0  0  0  0  0  0  0  0  0  0  0
    5.0772   19.0712   21.3924 C   0  0  0  0  0  0  0  0  0  0  0  0
    4.7775   20.2831   20.7433 C   0  0  0  0  0  0  0  0  0  0  0  0
  6  7  1  0  0  0
  7  8  1  0  0  0
  8  9  2  0  0  0
  9  1  1  0  0  0
  1  2  2  0  0  0
  2  3  1  0  0  0
  3  4  1  0  0  0
  4 16  1  0  0  0
 16 17  2  0  0  0
 17 18  1  0  0  0
 18 19  1  0  0  0
 19 20  2  0  0  0
 20 21  1  0  0  0
 21 22  2  0  0  0
 22 23  1  0  0  0
 22 24  1  0  0  0
 24 25  2  0  0  0
  4  5  2  0  0  0
  9 10  1  0  0  0
 10 11  2  0  0  0
 11 12  1  0  0  0
 12 13  1  0  0  0
 12  7  2  0  0  0
  5  1  1  0  0  0
 25 16  1  0  0  0
 25 19  1  0  0  0
 13 14  1  0  0  0
 13 15  1  0  0  0
M  END
> <minimizedAffinity>
-10.22180

$$$$
OCNT-2310207


 23 24  0  0  0  0  0  0  0  0999 V2000
    4.3416   17.4629   21.2336 S   0  0  0  0  0  0  0  0  0  0  0  0
    4.6251   16.6819   20.0462 O   0  0  0  0  0  0  0  0  0  0  0  0
    5.0121   17.1917   22.4866 O   0  0  0  0  0  0  0  0  0  0  0  0
    4.6363   19.1604   20.8197 C   0  0  0  0  0  0  0  0  0  0  0  0
    3.6575   19.8351   20.0734 C   0  0  0  0  0  0  0  0  0  0  0  0
    3.8524   21.1663   19.7111 C   0  0  0  0  0  0  0  0  0  0  0  0
    5.0179   21.8249   20.0995 C   0  0  0  0  0  0  0  0  0  0  0  0
    5.9812   21.1592   20.8642 C   0  0  0  0  0  0  0  0  0  0  0  0
    7.3975   22.0357   21.3243 Cl  0  0  0  0  0  0  0  0  0  0  0  0
    5.7914   19.8247   21.2466 C   0  0  0  0  0  0  0  0  0  0  0  0
    6.7597   19.2363   22.0169 O   0  0  0  0  0  0  0  0  0  0  0  0
    6.4286   18.4116   22.4340 H   0  0  0  0  0  0  0  0  0  0  0  0
    2.6888   17.4128   21.5601 N   0  0  0  0  0  0  0  0  0  0  0  0
    2.3318   18.2928   21.9284 H   0  0  0  0  0  0  0  0  0  0  0  0
    2.3986   14.5883   22.2697 C   0  0  0  0  0  0  0  0  0  0  0  0
    1.6539   15.2285   21.1318 C   0  0  0  0  0  0  0  0  0  0  0  0
    0.7727   14.4435   20.3705 C   0  0  0  0  0  0  0  0  0  0  0  0
    0.0817   14.9967   19.2959 C   0  0  0  0  0  0  0  0  0  0  0  0
   -0.7473   14.2110   18.5938 F   0  0  0  0  0  0  0  0  0  0  0  0
    0.2620   16.3315   18.9547 C   0  0  0  0  0  0  0  0  0  0  0  0
   -0.6586   17.0830   17.4846 Br  0  0  0  0  0  0  0  0  0  0  0  0
    1.1350   17.1260   19.6975 C   0  0  0  0  0  0  0  0  0  0  0  0
    1.8195   16.5845   20.7918 C   0  0  0  0  0  0  0  0  0  0  0  0
 15 16  1  0  0  0
 16 17  1  0  0  0
 17 18  2  0  0  0
 18 19  1  0  0  0
 18 20  1  0  0  0
 20 21  1  0  0  0
 20 22  2  0  0  0
 22 23  1  0  0  0
 23 13  1  0  0  0
 13  1  1  0  0  0
  1  2  2  0  0  0
  1  3  2  0  0  0
  1  4  1  0  0  0
  4  5  2  0  0  0
  5  6  1  0  0  0
  6  7  2  0  0  0
  7  8  1  0  0  0
  8  9  1  0  0  0
  8 10  2  0  0  0
 10 11  1  0  0  0
 23 16  2  0  0  0
 10  4  1  0  0  0
 13 14  1  0  0  0
 11 12  1  0  0  0
M  END
> <minimizedAffinity>
-9.45946

$$$$
OCNT-2310214


 29 31  0  0  0  0  0  0  0  0999 V2000
    3.1510   17.2832   21.6752 N   0  0  0  0  0  0  0  0  0  0  0  0
    2.3323   17.4713   22.2602 H   0  0  0  0  0  0  0  0  0  0  0  0
    4.4844   19.0105   20.5683 C   0  0  0  0  0  0  0  0  0  0  0  0
    4.5857   20.0649   19.6578 C   0  0  0  0  0  0  0  0  0  0  0  0
    3.4628   20.4756   18.9348 C   0  0  0  0  0  0  0  0  0  0  0  0
    2.2391   19.8336   19.1133 C   0  0  0  0  0  0  0  0  0  0  0  0
    2.1307   18.7777   20.0185 C   0  0  0  0  0  0  0  0  0  0  0  0
    3.2435   18.3601   20.7576 C   0  0  0  0  0  0  0  0  0  0  0  0
    5.5132   18.5269   21.3417 O   0  0  0  0  0  0  0  0  0  0  0  0
    5.8690   19.2808   22.5015 C   0  0  0  0  0  0  0  0  0  0  0  0
    7.1120   20.0866   22.1586 C   0  0  0  0  0  0  0  0  0  0  0  0
    5.7266   22.0515   22.3351 N   0  0  0  0  0  0  0  0  0  0  0  0
    6.7570   21.4628   21.6615 C   0  0  0  0  0  0  0  0  0  0  0  0
    7.3149   22.0356   20.7343 O   0  0  0  0  0  0  0  0  0  0  0  0
    5.4729   22.9951   22.0729 H   0  0  0  0  0  0  0  0  0  0  0  0
    5.3233   21.6547   23.1726 H   0  0  0  0  0  0  0  0  0  0  0  0
    3.0197   15.9585   21.0617 C   0  0  0  0  0  0  0  0  0  0  0  0
    1.8575   15.1167   21.4826 C   0  0  0  0  0  0  0  0  0  0  0  0
    1.8316   14.2565   22.5655 C   0  0  0  0  0  0  0  0  0  0  0  0
    0.6005   13.6827   22.5761 N   0  0  0  0  0  0  0  0  0  0  0  0
   -0.1987   14.1177   21.5959 N   0  0  0  0  0  0  0  0  0  0  0  0
    0.5630   14.9793   20.9026 C   0  0  0  0  0  0  0  0  0  0  0  0
    0.2360   12.9909   23.2233 H   0  0  0  0  0  0  0  0  0  0  0  0
   -0.0363   15.6754   19.6158 C   0  0  0  0  0  0  0  0  0  0  0  0
   -0.3016   14.9786   18.4500 C   0  0  0  0  0  0  0  0  0  0  0  0
   -0.8173   15.8174   17.4169 C   0  0  0  0  0  0  0  0  0  0  0  0
   -0.9200   17.1145   17.8478 C   0  0  0  0  0  0  0  0  0  0  0  0
   -1.5505   18.5440   16.7487 Br  0  0  0  0  0  0  0  0  0  0  0  0
   -0.4281   17.3280   19.4529 S   0  0  0  0  0  0  0  0  0  0  0  0
 12 13  1  0  0  0
 13 14  2  0  0  0
 13 11  1  0  0  0
 11 10  1  0  0  0
 10  9  1  0  0  0
  9  3  1  0  0  0
  3  4  2  0  0  0
  4  5  1  0  0  0
  5  6  2  0  0  0
  6  7  1  0  0  0
  7  8  2  0  0  0
  8  1  1  0  0  0
  1 17  1  0  0  0
 17 18  1  0  0  0
 18 19  2  0  0  0
 19 20  1  0  0  0
 20 21  1  0  0  0
 21 22  2  0  0  0
 22 24  1  0  0  0
 24 25  2  0  0  0
 25 26  1  0  0  0
 26 27  2  0  0  0
 27 28  1  0  0  0
 27 29  1  0  0  0
  8  3  1  0  0  0
 22 18  1  0  0  0
 29 24  1  0  0  0
 12 15  1  0  0  0
 12 16  1  0  0  0
  1  2  1  0  0  0
 20 23  1  0  0  0
M  END
> <minimizedAffinity>
-7.85815

$$$$
OCNT-2310235


 27 29  0  0  0  0  0  0  0  0999 V2000
    3.7575   16.7927   22.3874 O   0  0  0  0  0  0  0  0  0  0  0  0
    4.9646   17.1067   21.8488 C   0  0  0  0  0  0  0  0  0  0  0  0
    5.4551   16.5815   20.8532 O   0  0  0  0  0  0  0  0  0  0  0  0
    5.6334   18.2704   22.5957 C   0  0  0  0  0  0  0  0  0  0  0  0
    4.9628   18.5561   23.8258 O   0  0  0  0  0  0  0  0  0  0  0  0
    4.5776   17.7110   24.1285 H   0  0  0  0  0  0  0  0  0  0  0  0
    5.6919   19.5450   21.7794 C   0  0  0  0  0  0  0  0  0  0  0  0
    6.9243   20.1674   21.5239 C   0  0  0  0  0  0  0  0  0  0  0  0
    6.9816   21.3301   20.7526 C   0  0  0  0  0  0  0  0  0  0  0  0
    8.5036   22.0755   20.4515 Cl  0  0  0  0  0  0  0  0  0  0  0  0
    5.8233   21.8895   20.2214 C   0  0  0  0  0  0  0  0  0  0  0  0
    4.5989   21.2753   20.4672 C   0  0  0  0  0  0  0  0  0  0  0  0
    3.1592   21.9531   19.8119 Cl  0  0  0  0  0  0  0  0  0  0  0  0
    4.5270   20.1124   21.2361 C   0  0  0  0  0  0  0  0  0  0  0  0
    3.1626   15.5824   21.8953 C   0  0  0  0  0  0  0  0  0  0  0  0
   -1.8787   18.7548   16.7186 C   0  0  0  0  0  0  0  0  0  0  0  0
   -0.8613   18.2904   17.7151 C   0  0  0  0  0  0  0  0  0  0  0  0
   -0.7821   17.0225   18.1490 C   0  0  0  0  0  0  0  0  0  0  0  0
    0.1720   16.6146   19.0753 N   0  0  0  0  0  0  0  0  0  0  0  0
    0.1971   15.2905   19.4835 C   0  0  0  0  0  0  0  0  0  0  0  0
   -0.5690   14.4064   19.1028 O   0  0  0  0  0  0  0  0  0  0  0  0
    1.2413   14.9456   20.4620 C   0  0  0  0  0  0  0  0  0  0  0  0
    2.0757   15.9000   20.8897 C   0  0  0  0  0  0  0  0  0  0  0  0
    2.0122   17.2034   20.4622 N   0  0  0  0  0  0  0  0  0  0  0  0
    1.0942   17.5117   19.5971 C   0  0  0  0  0  0  0  0  0  0  0  0
    1.0083   18.9188   19.1194 C   0  0  0  0  0  0  0  0  0  0  0  0
    0.0741   19.2670   18.2266 C   0  0  0  0  0  0  0  0  0  0  0  0
 16 17  1  0  0  0
 17 18  2  0  0  0
 18 19  1  0  0  0
 19 20  1  0  0  0
 20 21  2  0  0  0
 20 22  1  0  0  0
 22 23  2  0  0  0
 23 15  1  0  0  0
 15  1  1  0  0  0
  1  2  1  0  0  0
  2  3  2  0  0  0
  2  4  1  0  0  0
  4  5  1  0  0  0
  4  7  1  0  0  0
  7  8  2  0  0  0
  8  9  1  0  0  0
  9 10  1  0  0  0
  9 11  2  0  0  0
 11 12  1  0  0  0
 12 13  1  0  0  0
 12 14  2  0  0  0
 23 24  1  0  0  0
 24 25  2  0  0  0
 25 26  1  0  0  0
 26 27  2  0  0  0
 27 17  1  0  0  0
 25 19  1  0  0  0
 14  7  1  0  0  0
  5  6  1  0  0  0
M  END
> <minimizedAffinity>
-10.82176

$$$$
OCNT-2310242


 30 33  0  0  0  0  0  0  0  0999 V2000
    4.7128   15.2334   21.7376 O   0  0  0  0  0  0  0  0  0  0  0  0
    4.2585   16.3621   21.5902 C   0  0  0  0  0  0  0  0  0  0  0  0
    2.9762   16.7014   21.2185 N   0  0  0  0  0  0  0  0  0  0  0  0
    2.7806   17.7002   21.1512 H   0  0  0  0  0  0  0  0  0  0  0  0
    1.8881   15.8630   20.9212 C   0  0  0  0  0  0  0  0  0  0  0  0
    1.1327   15.9490   19.7517 C   0  0  0  0  0  0  0  0  0  0  0  0
    0.0585   15.0695   19.5271 C   0  0  0  0  0  0  0  0  0  0  0  0
   -0.2479   14.0994   20.4935 C   0  0  0  0  0  0  0  0  0  0  0  0
    0.5009   14.0057   21.6667 C   0  0  0  0  0  0  0  0  0  0  0  0
    1.5604   14.8856   21.8720 C   0  0  0  0  0  0  0  0  0  0  0  0
    2.3122   14.8106   23.0187 O   0  0  0  0  0  0  0  0  0  0  0  0
    1.9698   14.0776   23.5570 H   0  0  0  0  0  0  0  0  0  0  0  0
   -0.7495   15.1644   18.2514 C   0  0  0  0  0  0  0  0  0  0  0  0
   -0.8156   16.5597   17.6734 C   0  0  0  0  0  0  0  0  0  0  0  0
   -1.9984   17.3091   17.7486 C   0  0  0  0  0  0  0  0  0  0  0  0
   -2.0559   18.5971   17.2128 C   0  0  0  0  0  0  0  0  0  0  0  0
   -0.9340   19.1485   16.5969 C   0  0  0  0  0  0  0  0  0  0  0  0
    0.2469   18.4133   16.5159 C   0  0  0  0  0  0  0  0  0  0  0  0
    0.3069   17.1258   17.0514 C   0  0  0  0  0  0  0  0  0  0  0  0
    5.1349   17.5584   21.8235 C   0  0  0  0  0  0  0  0  0  0  0  0
    6.2018   17.4789   22.7058 C   0  0  0  0  0  0  0  0  0  0  0  0
    6.9842   18.6130   22.8885 C   0  0  0  0  0  0  0  0  0  0  0  0
    6.6799   19.7826   22.1901 C   0  0  0  0  0  0  0  0  0  0  0  0
    5.5900   19.7823   21.3205 C   0  0  0  0  0  0  0  0  0  0  0  0
    4.8131   18.6852   21.1277 N   0  0  0  0  0  0  0  0  0  0  0  0
    5.2459   20.9540   20.5893 N   0  0  0  0  0  0  0  0  0  0  0  0
    3.9960   21.2458   20.0831 C   0  0  0  0  0  0  0  0  0  0  0  0
    4.1151   22.4622   19.4566 C   0  0  0  0  0  0  0  0  0  0  0  0
    5.3942   22.9345   19.5567 N   0  0  0  0  0  0  0  0  0  0  0  0
    6.0467   22.0158   20.2365 C   0  0  0  0  0  0  0  0  0  0  0  0
  1  2  2  0  0  0
  2  3  1  0  0  0
  3  5  1  0  0  0
  5  6  1  0  0  0
  6  7  2  0  0  0
  7 13  1  0  0  0
 13 14  1  0  0  0
 14 15  2  0  0  0
 15 16  1  0  0  0
 16 17  2  0  0  0
 17 18  1  0  0  0
 18 19  2  0  0  0
  7  8  1  0  0  0
  8  9  2  0  0  0
  9 10  1  0  0  0
 10 11  1  0  0  0
  2 20  1  0  0  0
 20 21  1  0  0  0
 21 22  2  0  0  0
 22 23  1  0  0  0
 23 24  2  0  0  0
 24 26  1  0  0  0
 26 27  1  0  0  0
 27 28  2  0  0  0
 28 29  1  0  0  0
 29 30  2  0  0  0
 24 25  1  0  0  0
 10  5  2  0  0  0
 25 20  2  0  0  0
 19 14  1  0  0  0
 30 26  1  0  0  0
  3  4  1  0  0  0
 11 12  1  0  0  0
M  END
> <minimizedAffinity>
-6.31185

$$$$
OCNT-2310250


 29 32  0  0  0  0  0  0  0  0999 V2000
    4.4351   18.7527   20.4539 C   0  0  0  0  0  0  0  0  0  0  0  0
    4.4114   17.7390   21.4052 C   0  0  0  0  0  0  0  0  0  0  0  0
    5.3177   18.0777   22.3829 N   0  0  0  0  0  0  0  0  0  0  0  0
    5.9177   19.2808   22.1041 C   0  0  0  0  0  0  0  0  0  0  0  0
    6.8833   19.9948   22.8236 C   0  0  0  0  0  0  0  0  0  0  0  0
    7.3159   21.2134   22.2935 C   0  0  0  0  0  0  0  0  0  0  0  0
    6.8026   21.6942   21.0919 C   0  0  0  0  0  0  0  0  0  0  0  0
    5.8387   20.9647   20.3858 C   0  0  0  0  0  0  0  0  0  0  0  0
    5.3858   19.7309   20.8983 C   0  0  0  0  0  0  0  0  0  0  0  0
    5.5227   17.5121   23.1940 H   0  0  0  0  0  0  0  0  0  0  0  0
    3.6322   16.5078   21.4812 C   0  0  0  0  0  0  0  0  0  0  0  0
    4.2165   15.3325   21.9751 C   0  0  0  0  0  0  0  0  0  0  0  0
    3.4714   14.1543   22.0501 C   0  0  0  0  0  0  0  0  0  0  0  0
    2.1468   14.1531   21.6291 C   0  0  0  0  0  0  0  0  0  0  0  0
    1.4337   13.0218   21.7006 F   0  0  0  0  0  0  0  0  0  0  0  0
    1.5522   15.3074   21.1348 C   0  0  0  0  0  0  0  0  0  0  0  0
    2.2958   16.4868   21.0607 C   0  0  0  0  0  0  0  0  0  0  0  0
    3.6021   18.8425   19.2092 C   0  0  0  0  0  0  0  0  0  0  0  0
    2.8696   20.1779   19.1149 C   0  0  0  0  0  0  0  0  0  0  0  0
    1.0685   18.9015   18.2049 N   0  0  0  0  0  0  0  0  0  0  0  0
    1.3689   19.9934   18.9832 C   0  0  0  0  0  0  0  0  0  0  0  0
    0.5716   20.7445   19.5290 O   0  0  0  0  0  0  0  0  0  0  0  0
    1.8228   18.3398   17.8318 H   0  0  0  0  0  0  0  0  0  0  0  0
   -0.3348   15.8918   18.6303 C   0  0  0  0  0  0  0  0  0  0  0  0
   -0.7997   17.1470   18.0007 C   0  0  0  0  0  0  0  0  0  0  0  0
   -2.0329   17.3268   17.4140 C   0  0  0  0  0  0  0  0  0  0  0  0
   -2.1439   18.5852   16.9421 O   0  0  0  0  0  0  0  0  0  0  0  0
   -0.9825   19.2714   17.2078 N   0  0  0  0  0  0  0  0  0  0  0  0
   -0.1683   18.4144   17.8404 C   0  0  0  0  0  0  0  0  0  0  0  0
 24 25  1  0  0  0
 25 26  2  0  0  0
 26 27  1  0  0  0
 27 28  1  0  0  0
 28 29  2  0  0  0
 29 20  1  0  0  0
 20 21  1  0  0  0
 21 22  2  0  0  0
 21 19  1  0  0  0
 19 18  1  0  0  0
 18  1  1  0  0  0
  1  2  2  0  0  0
  2 11  1  0  0  0
 11 12  1  0  0  0
 12 13  2  0  0  0
 13 14  1  0  0  0
 14 15  1  0  0  0
 14 16  2  0  0  0
 16 17  1  0  0  0
  2  3  1  0  0  0
  3  4  1  0  0  0
  4  5  2  0  0  0
  5  6  1  0  0  0
  6  7  2  0  0  0
  7  8  1  0  0  0
  8  9  2  0  0  0
 29 25  1  0  0  0
  9  1  1  0  0  0
 17 11  2  0  0  0
  9  4  1  0  0  0
 20 23  1  0  0  0
  3 10  1  0  0  0
M  END
> <minimizedAffinity>
-10.81625

$$$$
OCNT-2310256


 30 33  0  0  0  0  0  0  0  0999 V2000
    2.1944   15.6208   21.3698 C   0  0  0  0  0  0  0  0  0  0  0  0
    1.8071   14.8021   22.4139 C   0  0  0  0  0  0  0  0  0  0  0  0
    0.4541   14.5886   22.2973 N   0  0  0  0  0  0  0  0  0  0  0  0
   -0.0510   15.2498   21.2328 N   0  0  0  0  0  0  0  0  0  0  0  0
    0.9874   15.8612   20.6453 C   0  0  0  0  0  0  0  0  0  0  0  0
    0.7674   16.6782   19.4479 C   0  0  0  0  0  0  0  0  0  0  0  0
   -0.1099   16.2218   18.4486 C   0  0  0  0  0  0  0  0  0  0  0  0
   -0.3465   16.9860   17.3036 C   0  0  0  0  0  0  0  0  0  0  0  0
    0.2970   18.2071   17.1530 C   0  0  0  0  0  0  0  0  0  0  0  0
    0.0713   18.9416   16.0560 F   0  0  0  0  0  0  0  0  0  0  0  0
    1.1769   18.6737   18.1215 C   0  0  0  0  0  0  0  0  0  0  0  0
    1.4180   17.9068   19.2654 C   0  0  0  0  0  0  0  0  0  0  0  0
   -0.3877   13.8067   23.1384 C   0  0  0  0  0  0  0  0  0  0  0  0
   -0.6800   12.4688   22.8377 C   0  0  0  0  0  0  0  0  0  0  0  0
   -1.5101   11.7266   23.6838 C   0  0  0  0  0  0  0  0  0  0  0  0
   -2.0510   12.3103   24.8282 C   0  0  0  0  0  0  0  0  0  0  0  0
   -1.7655   13.6393   25.1326 C   0  0  0  0  0  0  0  0  0  0  0  0
   -0.9375   14.3870   24.2927 C   0  0  0  0  0  0  0  0  0  0  0  0
    3.5722   16.1213   21.1108 C   0  0  0  0  0  0  0  0  0  0  0  0
    3.6563   17.5007   21.5500 N   0  0  0  0  0  0  0  0  0  0  0  0
    2.8088   18.0434   21.6997 H   0  0  0  0  0  0  0  0  0  0  0  0
    4.7295   18.2899   23.6875 O   0  0  0  0  0  0  0  0  0  0  0  0
    5.0390   18.0542   22.2953 S   0  0  0  0  0  0  0  0  0  0  0  0
    6.1118   17.1775   21.8846 O   0  0  0  0  0  0  0  0  0  0  0  0
    5.2993   19.6088   21.5183 C   0  0  0  0  0  0  0  0  0  0  0  0
    6.3968   20.4003   21.8537 C   0  0  0  0  0  0  0  0  0  0  0  0
    6.5574   21.6262   21.2151 C   0  0  0  0  0  0  0  0  0  0  0  0
    5.6127   22.0059   20.2728 C   0  0  0  0  0  0  0  0  0  0  0  0
    4.5374   21.2551   19.9404 N   0  0  0  0  0  0  0  0  0  0  0  0
    4.3910   20.0727   20.5850 C   0  0  0  0  0  0  0  0  0  0  0  0
 22 23  2  0  0  0
 23 24  2  0  0  0
 23 20  1  0  0  0
 20 19  1  0  0  0
 19  1  1  0  0  0
  1  2  2  0  0  0
  2  3  1  0  0  0
  3 13  1  0  0  0
 13 14  2  0  0  0
 14 15  1  0  0  0
 15 16  2  0  0  0
 16 17  1  0  0  0
 17 18  2  0  0  0
  3  4  1  0  0  0
  4  5  2  0  0  0
  5  6  1  0  0  0
  6  7  1  0  0  0
  7  8  2  0  0  0
  8  9  1  0  0  0
  9 10  1  0  0  0
  9 11  2  0  0  0
 11 12  1  0  0  0
 23 25  1  0  0  0
 25 26  1  0  0  0
 26 27  2  0  0  0
 27 28  1  0  0  0
 28 29  2  0  0  0
 29 30  1  0  0  0
  5  1  1  0  0  0
 12  6  2  0  0  0
 30 25  2  0  0  0
 18 13  1  0  0  0
 20 21  1  0  0  0
M  END
> <minimizedAffinity>
-8.90864

$$$$
OCNT-2310258


 29 32  0  0  0  0  0  0  0  0999 V2000
    2.4523   16.5348   20.8517 C   0  0  0  0  0  0  0  0  0  0  0  0
    1.2933   16.4384   20.1059 C   0  0  0  0  0  0  0  0  0  0  0  0
    1.1804   17.5980   19.3665 N   0  0  0  0  0  0  0  0  0  0  0  0
    2.1990   18.4484   19.6380 N   0  0  0  0  0  0  0  0  0  0  0  0
    2.9778   17.8119   20.5173 C   0  0  0  0  0  0  0  0  0  0  0  0
    4.1833   18.4417   21.0318 C   0  0  0  0  0  0  0  0  0  0  0  0
    4.5278   19.7357   20.6114 C   0  0  0  0  0  0  0  0  0  0  0  0
    5.6718   20.3525   21.1215 C   0  0  0  0  0  0  0  0  0  0  0  0
    6.4664   19.6709   22.0401 C   0  0  0  0  0  0  0  0  0  0  0  0
    7.5636   20.2654   22.5286 F   0  0  0  0  0  0  0  0  0  0  0  0
    6.1388   18.3846   22.4608 C   0  0  0  0  0  0  0  0  0  0  0  0
    4.9918   17.7667   21.9575 C   0  0  0  0  0  0  0  0  0  0  0  0
    0.1698   17.9454   18.4246 C   0  0  0  0  0  0  0  0  0  0  0  0
    0.4666   18.8729   17.4126 C   0  0  0  0  0  0  0  0  0  0  0  0
   -0.5035   19.2243   16.4710 C   0  0  0  0  0  0  0  0  0  0  0  0
   -1.7750   18.6551   16.5314 C   0  0  0  0  0  0  0  0  0  0  0  0
   -2.0793   17.7344   17.5339 C   0  0  0  0  0  0  0  0  0  0  0  0
   -1.1126   17.3770   18.4802 C   0  0  0  0  0  0  0  0  0  0  0  0
    3.0208   15.5361   21.8000 C   0  0  0  0  0  0  0  0  0  0  0  0
    2.0994   13.3364   21.5126 O   0  0  0  0  0  0  0  0  0  0  0  0
    2.0270   14.4180   22.0873 C   0  0  0  0  0  0  0  0  0  0  0  0
    1.0762   14.7746   23.0319 N   0  0  0  0  0  0  0  0  0  0  0  0
    1.1313   15.7132   23.4068 H   0  0  0  0  0  0  0  0  0  0  0  0
   -0.0057   13.9914   23.4819 C   0  0  0  0  0  0  0  0  0  0  0  0
   -0.8294   14.5379   24.4703 C   0  0  0  0  0  0  0  0  0  0  0  0
   -1.9249   13.8195   24.9421 C   0  0  0  0  0  0  0  0  0  0  0  0
   -2.1628   12.5645   24.4099 C   0  0  0  0  0  0  0  0  0  0  0  0
   -1.3902   11.9971   23.4609 N   0  0  0  0  0  0  0  0  0  0  0  0
   -0.3296   12.7198   23.0170 C   0  0  0  0  0  0  0  0  0  0  0  0
 20 21  2  0  0  0
 21 19  1  0  0  0
 19  1  1  0  0  0
  1  2  2  0  0  0
  2  3  1  0  0  0
  3 13  1  0  0  0
 13 14  2  0  0  0
 14 15  1  0  0  0
 15 16  2  0  0  0
 16 17  1  0  0  0
 17 18  2  0  0  0
  3  4  1  0  0  0
  4  5  2  0  0  0
  5  6  1  0  0  0
  6  7  1  0  0  0
  7  8  2  0  0  0
  8  9  1  0  0  0
  9 10  1  0  0  0
  9 11  2  0  0  0
 11 12  1  0  0  0
 21 22  1  0  0  0
 22 24  1  0  0  0
 24 25  1  0  0  0
 25 26  2  0  0  0
 26 27  1  0  0  0
 27 28  2  0  0  0
 28 29  1  0  0  0
  5  1  1  0  0  0
 12  6  2  0  0  0
 29 24  2  0  0  0
 18 13  1  0  0  0
 22 23  1  0  0  0
M  END
> <minimizedAffinity>
-9.28234

$$$$
OCNT-2310260


 23 25  0  0  0  0  0  0  0  0999 V2000
    0.2529   19.7267   18.7382 C   0  0  0  0  0  0  0  0  0  0  0  0
    1.6438   19.9894   19.2488 C   0  0  0  0  0  0  0  0  0  0  0  0
    2.0744   21.2860   19.5343 C   0  0  0  0  0  0  0  0  0  0  0  0
    3.3648   21.5139   20.0338 C   0  0  0  0  0  0  0  0  0  0  0  0
    4.2700   20.4690   20.2754 C   0  0  0  0  0  0  0  0  0  0  0  0
    3.8095   19.1744   19.9913 C   0  0  0  0  0  0  0  0  0  0  0  0
    2.5230   18.9322   19.4902 C   0  0  0  0  0  0  0  0  0  0  0  0
    5.5329   20.7005   20.7667 N   0  0  0  0  0  0  0  0  0  0  0  0
    6.3235   21.8927   20.4712 C   0  0  0  0  0  0  0  0  0  0  0  0
    7.7147   21.5496   20.9982 C   0  0  0  0  0  0  0  0  0  0  0  0
    7.4189   20.6351   22.1737 C   0  0  0  0  0  0  0  0  0  0  0  0
    6.2410   19.8016   21.6745 C   0  0  0  0  0  0  0  0  0  0  0  0
   -0.3304   17.5547   17.7232 C   0  0  0  0  0  0  0  0  0  0  0  0
   -0.4484   18.0306   16.5973 O   0  0  0  0  0  0  0  0  0  0  0  0
   -0.0656   18.3227   18.8312 N   0  0  0  0  0  0  0  0  0  0  0  0
    0.1330   17.8527   19.7068 H   0  0  0  0  0  0  0  0  0  0  0  0
   -0.1246   15.3665   19.1324 C   0  0  0  0  0  0  0  0  0  0  0  0
   -0.3511   14.0555   19.1034 N   0  0  0  0  0  0  0  0  0  0  0  0
   -0.9912   13.6687   17.6268 S   0  0  0  0  0  0  0  0  0  0  0  0
   -0.9769   15.2591   17.0093 C   0  0  0  0  0  0  0  0  0  0  0  0
   -0.4652   16.1242   17.9652 C   0  0  0  0  0  0  0  0  0  0  0  0
    1.4206   15.1434   20.8849 C   0  0  0  0  0  0  0  0  0  0  0  0
    0.4093   15.9239   20.2533 O   0  0  0  0  0  0  0  0  0  0  0  0
 22 23  1  0  0  0
 23 17  1  0  0  0
 17 18  2  0  0  0
 18 19  1  0  0  0
 19 20  1  0  0  0
 20 21  2  0  0  0
 21 13  1  0  0  0
 13 14  2  0  0  0
 13 15  1  0  0  0
 15  1  1  0  0  0
  1  2  1  0  0  0
  2  3  1  0  0  0
  3  4  2  0  0  0
  4  5  1  0  0  0
  5  8  1  0  0  0
  8  9  1  0  0  0
  9 10  1  0  0  0
 10 11  1  0  0  0
 11 12  1  0  0  0
  5  6  2  0  0  0
  6  7  1  0  0  0
 21 17  1  0  0  0
  7  2  2  0  0  0
 12  8  1  0  0  0
 15 16  1  0  0  0
M  END
> <minimizedAffinity>
-6.73787

$$$$
OCNT-2310262


 22 24  0  0  0  0  0  0  0  0999 V2000
   -0.1075   19.2825   19.8995 O   0  0  0  0  0  0  0  0  0  0  0  0
    0.7915   18.5013   19.5976 C   0  0  0  0  0  0  0  0  0  0  0  0
    2.1068   18.8973   19.3454 N   0  0  0  0  0  0  0  0  0  0  0  0
    3.2569   18.0111   19.6134 C   0  0  0  0  0  0  0  0  0  0  0  0
    4.5425   18.4750   18.8994 C   0  0  0  0  0  0  0  0  0  0  0  0
    4.8282   19.9093   19.1231 N   0  0  0  0  0  0  0  0  0  0  0  0
    3.6725   20.7649   18.7739 C   0  0  0  0  0  0  0  0  0  0  0  0
    2.3960   20.3269   19.5144 C   0  0  0  0  0  0  0  0  0  0  0  0
    0.4395   17.0708   19.4692 C   0  0  0  0  0  0  0  0  0  0  0  0
   -0.3262   16.6580   18.3738 C   0  0  0  0  0  0  0  0  0  0  0  0
   -0.6441   15.3082   18.2207 C   0  0  0  0  0  0  0  0  0  0  0  0
   -0.1844   14.3743   19.1517 C   0  0  0  0  0  0  0  0  0  0  0  0
    0.6008   14.7925   20.2275 C   0  0  0  0  0  0  0  0  0  0  0  0
    1.2332   13.5212   21.4754 Br  0  0  0  0  0  0  0  0  0  0  0  0
    0.9254   16.1371   20.3902 C   0  0  0  0  0  0  0  0  0  0  0  0
    5.4481   20.2043   20.3447 C   0  0  0  0  0  0  0  0  0  0  0  0
    6.0296   21.4597   20.5490 C   0  0  0  0  0  0  0  0  0  0  0  0
    6.6636   21.7567   21.7577 C   0  0  0  0  0  0  0  0  0  0  0  0
    6.7164   20.7864   22.7430 C   0  0  0  0  0  0  0  0  0  0  0  0
    7.4830   21.0963   24.2448 Cl  0  0  0  0  0  0  0  0  0  0  0  0
    6.1399   19.5601   22.4726 C   0  0  0  0  0  0  0  0  0  0  0  0
    5.5204   19.2545   21.3042 N   0  0  0  0  0  0  0  0  0  0  0  0
  1  2  2  0  0  0
  2  9  1  0  0  0
  9 10  2  0  0  0
 10 11  1  0  0  0
 11 12  2  0  0  0
 12 13  1  0  0  0
 13 14  1  0  0  0
 13 15  2  0  0  0
  2  3  1  0  0  0
  3  4  1  0  0  0
  4  5  1  0  0  0
  5  6  1  0  0  0
  6 16  1  0  0  0
 16 17  2  0  0  0
 17 18  1  0  0  0
 18 19  2  0  0  0
 19 20  1  0  0  0
 19 21  1  0  0  0
 21 22  2  0  0  0
  6  7  1  0  0  0
  7  8  1  0  0  0
 15  9  1  0  0  0
  8  3  1  0  0  0
 22 16  1  0  0  0
M  END
> <minimizedAffinity>
-4.34618

$$$$
OCNT-2310283


 22 25  0  0  0  0  0  0  0  0999 V2000
    5.2706   17.3600   20.3665 C   0  0  0  0  0  0  0  0  0  0  0  0
    4.5371   18.4872   21.1004 C   0  0  0  0  0  0  0  0  0  0  0  0
    5.4854   19.6050   21.4202 C   0  0  0  0  0  0  0  0  0  0  0  0
    6.3104   19.8318   22.5048 C   0  0  0  0  0  0  0  0  0  0  0  0
    7.0082   21.0427   22.2630 C   0  0  0  0  0  0  0  0  0  0  0  0
    6.5893   21.5268   21.0417 C   0  0  0  0  0  0  0  0  0  0  0  0
    5.6734   20.6471   20.5509 N   0  0  0  0  0  0  0  0  0  0  0  0
    4.9022   20.7544   19.3325 C   0  0  0  0  0  0  0  0  0  0  0  0
    3.4807   20.2826   19.6178 C   0  0  0  0  0  0  0  0  0  0  0  0
    3.3904   18.9766   20.3004 N   0  0  0  0  0  0  0  0  0  0  0  0
    2.2049   18.2312   20.3718 C   0  0  0  0  0  0  0  0  0  0  0  0
    2.1540   17.1699   20.9934 O   0  0  0  0  0  0  0  0  0  0  0  0
    0.9989   18.8067   19.6560 C   0  0  0  0  0  0  0  0  0  0  0  0
    0.4922   17.9479   18.6050 N   0  0  0  0  0  0  0  0  0  0  0  0
    0.1176   18.4912   17.4279 N   0  0  0  0  0  0  0  0  0  0  0  0
   -0.4287   17.5270   16.6986 N   0  0  0  0  0  0  0  0  0  0  0  0
   -0.4277   16.3777   17.4428 C   0  0  0  0  0  0  0  0  0  0  0  0
   -0.9049   15.0940   17.1429 C   0  0  0  0  0  0  0  0  0  0  0  0
   -0.7868   14.0927   18.1154 C   0  0  0  0  0  0  0  0  0  0  0  0
   -0.2057   14.3649   19.3568 C   0  0  0  0  0  0  0  0  0  0  0  0
    0.2762   15.6411   19.6724 C   0  0  0  0  0  0  0  0  0  0  0  0
    0.1475   16.6231   18.6844 C   0  0  0  0  0  0  0  0  0  0  0  0
  1  2  1  0  0  0
  2  3  1  0  0  0
  3  4  2  0  0  0
  4  5  1  0  0  0
  5  6  2  0  0  0
  6  7  1  0  0  0
  7  8  1  0  0  0
  8  9  1  0  0  0
  9 10  1  0  0  0
 10 11  1  0  0  0
 11 12  2  0  0  0
 11 13  1  0  0  0
 13 14  1  0  0  0
 14 15  1  0  0  0
 15 16  2  0  0  0
 16 17  1  0  0  0
 17 18  2  0  0  0
 18 19  1  0  0  0
 19 20  2  0  0  0
 20 21  1  0  0  0
 21 22  2  0  0  0
 10  2  1  0  0  0
 22 14  1  0  0  0
  7  3  1  0  0  0
 22 17  1  0  0  0
M  END
> <minimizedAffinity>
-8.41135

$$$$
OCNT-2310288


 25 27  0  0  0  0  0  0  0  0999 V2000
    2.8840   13.8030   21.8576 O   0  0  0  0  0  0  0  0  0  0  0  0
    2.2876   14.8672   21.7105 C   0  0  0  0  0  0  0  0  0  0  0  0
    2.9262   16.0766   21.6933 N   0  0  0  0  0  0  0  0  0  0  0  0
    2.3974   16.9433   21.7104 H   0  0  0  0  0  0  0  0  0  0  0  0
    0.7484   14.9223   21.5949 C   0  0  0  0  0  0  0  0  0  0  0  0
    0.1578   13.6647   21.9293 O   0  0  0  0  0  0  0  0  0  0  0  0
    0.8615   13.1470   22.3662 H   0  0  0  0  0  0  0  0  0  0  0  0
    0.3028   15.2949   20.1962 C   0  0  0  0  0  0  0  0  0  0  0  0
    0.3899   16.6261   19.7489 C   0  0  0  0  0  0  0  0  0  0  0  0
   -0.0356   16.9723   18.4662 C   0  0  0  0  0  0  0  0  0  0  0  0
    0.0911   18.6037   17.9377 Cl  0  0  0  0  0  0  0  0  0  0  0  0
   -0.5677   16.0114   17.6106 C   0  0  0  0  0  0  0  0  0  0  0  0
   -0.6649   14.6918   18.0493 C   0  0  0  0  0  0  0  0  0  0  0  0
   -1.3394   13.4929   17.0119 Cl  0  0  0  0  0  0  0  0  0  0  0  0
   -0.2317   14.3286   19.3271 C   0  0  0  0  0  0  0  0  0  0  0  0
    4.3671   16.1941   21.8312 C   0  0  0  0  0  0  0  0  0  0  0  0
    4.7587   17.6178   21.5636 C   0  0  0  0  0  0  0  0  0  0  0  0
    5.8163   18.2067   22.0921 N   0  0  0  0  0  0  0  0  0  0  0  0
    5.9077   19.5082   21.6230 C   0  0  0  0  0  0  0  0  0  0  0  0
    6.9255   20.4308   21.9429 C   0  0  0  0  0  0  0  0  0  0  0  0
    6.8997   21.7158   21.3899 C   0  0  0  0  0  0  0  0  0  0  0  0
    5.8695   22.0956   20.5379 C   0  0  0  0  0  0  0  0  0  0  0  0
    4.8460   21.2007   20.2081 C   0  0  0  0  0  0  0  0  0  0  0  0
    4.8903   19.9068   20.7544 C   0  0  0  0  0  0  0  0  0  0  0  0
    3.8102   18.5885   20.5181 S   0  0  0  0  0  0  0  0  0  0  0  0
  1  2  2  0  0  0
  2  3  1  0  0  0
  3 16  1  0  0  0
 16 17  1  0  0  0
 17 18  2  0  0  0
 18 19  1  0  0  0
 19 20  2  0  0  0
 20 21  1  0  0  0
 21 22  2  0  0  0
 22 23  1  0  0  0
 23 24  2  0  0  0
 24 25  1  0  0  0
  2  5  1  0  0  0
  5  6  1  0  0  0
  5  8  1  0  0  0
  8  9  2  0  0  0
  9 10  1  0  0  0
 10 11  1  0  0  0
 10 12  2  0  0  0
 12 13  1  0  0  0
 13 14  1  0  0  0
 13 15  2  0  0  0
 25 17  1  0  0  0
 15  8  1  0  0  0
 24 19  1  0  0  0
  3  4  1  0  0  0
  6  7  1  0  0  0
M  END
> <minimizedAffinity>
-10.94176

$$$$
OCNT-2310298


 26 29  0  0  0  0  0  0  0  0999 V2000
    0.3242   16.1359   20.1390 C   0  0  0  0  0  0  0  0  0  0  0  0
   -0.1094   16.2112   18.8170 C   0  0  0  0  0  0  0  0  0  0  0  0
    0.5042   17.0901   17.9244 C   0  0  0  0  0  0  0  0  0  0  0  0
    1.5571   17.9005   18.3494 C   0  0  0  0  0  0  0  0  0  0  0  0
    2.0208   17.8519   19.6735 C   0  0  0  0  0  0  0  0  0  0  0  0
    1.3864   16.9575   20.5559 C   0  0  0  0  0  0  0  0  0  0  0  0
    3.1415   18.7361   20.0651 C   0  0  0  0  0  0  0  0  0  0  0  0
    4.0826   18.3828   20.9200 N   0  0  0  0  0  0  0  0  0  0  0  0
    4.9980   19.4052   21.0957 C   0  0  0  0  0  0  0  0  0  0  0  0
    6.1285   19.3681   21.9369 C   0  0  0  0  0  0  0  0  0  0  0  0
    6.9725   20.4807   22.0173 C   0  0  0  0  0  0  0  0  0  0  0  0
    6.7030   21.6240   21.2720 C   0  0  0  0  0  0  0  0  0  0  0  0
    5.5875   21.6848   20.4306 C   0  0  0  0  0  0  0  0  0  0  0  0
    4.7476   20.5609   20.3586 C   0  0  0  0  0  0  0  0  0  0  0  0
    3.3207   20.3288   19.4308 S   0  0  0  0  0  0  0  0  0  0  0  0
    1.6330   14.5595   22.2870 O   0  0  0  0  0  0  0  0  0  0  0  0
    0.4216   14.5618   22.0923 C   0  0  0  0  0  0  0  0  0  0  0  0
   -0.2387   15.2758   21.1085 N   0  0  0  0  0  0  0  0  0  0  0  0
   -1.2476   15.1799   21.0668 H   0  0  0  0  0  0  0  0  0  0  0  0
   -0.4235   13.7217   22.9925 C   0  0  0  0  0  0  0  0  0  0  0  0
   -0.7136   12.4094   22.5970 C   0  0  0  0  0  0  0  0  0  0  0  0
   -1.4966   11.6215   23.4246 C   0  0  0  0  0  0  0  0  0  0  0  0
   -2.0020   12.0479   24.6019 N   0  0  0  0  0  0  0  0  0  0  0  0
   -1.7098   13.3175   24.9644 C   0  0  0  0  0  0  0  0  0  0  0  0
   -0.9367   14.1763   24.2029 C   0  0  0  0  0  0  0  0  0  0  0  0
   -0.7033   15.4194   24.6500 F   0  0  0  0  0  0  0  0  0  0  0  0
 16 17  2  0  0  0
 17 18  1  0  0  0
 18  1  1  0  0  0
  1  2  2  0  0  0
  2  3  1  0  0  0
  3  4  2  0  0  0
  4  5  1  0  0  0
  5  7  1  0  0  0
  7  8  2  0  0  0
  8  9  1  0  0  0
  9 10  2  0  0  0
 10 11  1  0  0  0
 11 12  2  0  0  0
 12 13  1  0  0  0
 13 14  2  0  0  0
 14 15  1  0  0  0
  5  6  2  0  0  0
 17 20  1  0  0  0
 20 21  2  0  0  0
 21 22  1  0  0  0
 22 23  2  0  0  0
 23 24  1  0  0  0
 24 25  2  0  0  0
 25 26  1  0  0  0
  6  1  1  0  0  0
 25 20  1  0  0  0
 15  7  1  0  0  0
 14  9  1  0  0  0
 18 19  1  0  0  0
M  END
> <minimizedAffinity>
-6.20910

$$$$
OCNT-2310303


 29 31  0  0  0  0  0  0  0  0999 V2000
   -0.4535   17.0365   18.2246 C   0  0  0  0  0  0  0  0  0  0  0  0
    0.2344   16.9169   19.4145 C   0  0  0  0  0  0  0  0  0  0  0  0
    0.2027   15.5814   19.6953 N   0  0  0  0  0  0  0  0  0  0  0  0
   -0.4046   14.8976   18.7041 N   0  0  0  0  0  0  0  0  0  0  0  0
   -0.8383   15.7790   17.8155 N   0  0  0  0  0  0  0  0  0  0  0  0
   -2.3573   18.2455   17.1528 C   0  0  0  0  0  0  0  0  0  0  0  0
   -0.8341   18.2533   17.4153 C   0  0  0  0  0  0  0  0  0  0  0  0
   -0.1467   18.3046   16.0367 C   0  0  0  0  0  0  0  0  0  0  0  0
   -0.5335   19.4309   18.2445 N   0  0  0  0  0  0  0  0  0  0  0  0
    0.7299   19.8840   18.4825 C   0  0  0  0  0  0  0  0  0  0  0  0
    0.7660   20.8322   19.4553 N   0  0  0  0  0  0  0  0  0  0  0  0
    1.7490   19.5570   17.8946 O   0  0  0  0  0  0  0  0  0  0  0  0
   -1.1553   19.5396   19.0314 H   0  0  0  0  0  0  0  0  0  0  0  0
    1.7118   21.0908   19.7075 H   0  0  0  0  0  0  0  0  0  0  0  0
    0.1399   20.7309   20.2384 H   0  0  0  0  0  0  0  0  0  0  0  0
    0.8334   14.8530   20.7833 C   0  0  0  0  0  0  0  0  0  0  0  0
    2.1446   15.4510   21.1745 C   0  0  0  0  0  0  0  0  0  0  0  0
    2.4719   16.7146   21.0022 N   0  0  0  0  0  0  0  0  0  0  0  0
    3.7614   16.9498   21.4506 C   0  0  0  0  0  0  0  0  0  0  0  0
    4.3884   15.8469   21.9972 C   0  0  0  0  0  0  0  0  0  0  0  0
    3.3482   14.4862   21.9403 S   0  0  0  0  0  0  0  0  0  0  0  0
    4.3699   18.2663   21.3390 C   0  0  0  0  0  0  0  0  0  0  0  0
    4.9021   18.9045   22.4646 C   0  0  0  0  0  0  0  0  0  0  0  0
    4.9114   18.2987   23.6623 F   0  0  0  0  0  0  0  0  0  0  0  0
    5.4702   20.1774   22.3799 C   0  0  0  0  0  0  0  0  0  0  0  0
    5.5168   20.8401   21.1557 C   0  0  0  0  0  0  0  0  0  0  0  0
    4.9952   20.2215   20.0215 C   0  0  0  0  0  0  0  0  0  0  0  0
    4.4303   18.9491   20.1195 C   0  0  0  0  0  0  0  0  0  0  0  0
    3.9382   18.3979   18.9981 F   0  0  0  0  0  0  0  0  0  0  0  0
  6  7  1  0  0  0
  7  8  1  0  0  0
  7  9  1  0  0  0
  9 10  1  0  0  0
 10 11  1  0  0  0
 10 12  2  0  0  0
  7  1  1  0  0  0
  1  2  2  0  0  0
  2  3  1  0  0  0
  3 16  1  0  0  0
 16 17  1  0  0  0
 17 18  2  0  0  0
 18 19  1  0  0  0
 19 22  1  0  0  0
 22 23  2  0  0  0
 23 24  1  0  0  0
 23 25  1  0  0  0
 25 26  2  0  0  0
 26 27  1  0  0  0
 27 28  2  0  0  0
 28 29  1  0  0  0
 19 20  2  0  0  0
 20 21  1  0  0  0
  3  4  1  0  0  0
  4  5  2  0  0  0
  5  1  1  0  0  0
 21 17  1  0  0  0
 28 22  1  0  0  0
  9 13  1  0  0  0
 11 14  1  0  0  0
 11 15  1  0  0  0
M  END
> <minimizedAffinity>
-9.40908

$$$$
OCNT-2310316


 23 24  0  0  0  0  0  0  0  0999 V2000
    1.3595   18.7162   19.5330 C   0  0  0  0  0  0  0  0  0  0  0  0
    0.6800   19.7324   19.5389 O   0  0  0  0  0  0  0  0  0  0  0  0
    2.7192   18.6530   19.7779 N   0  0  0  0  0  0  0  0  0  0  0  0
    3.1037   17.7071   19.7342 H   0  0  0  0  0  0  0  0  0  0  0  0
    3.6255   19.6901   20.0858 C   0  0  0  0  0  0  0  0  0  0  0  0
    3.5307   20.9650   19.5237 C   0  0  0  0  0  0  0  0  0  0  0  0
    4.4498   21.9595   19.8616 C   0  0  0  0  0  0  0  0  0  0  0  0
    5.4759   21.6905   20.7642 C   0  0  0  0  0  0  0  0  0  0  0  0
    5.6041   20.4184   21.3430 C   0  0  0  0  0  0  0  0  0  0  0  0
    4.6705   19.4244   20.9998 C   0  0  0  0  0  0  0  0  0  0  0  0
    4.8036   17.8340   21.6953 Cl  0  0  0  0  0  0  0  0  0  0  0  0
    6.7153   20.1554   22.3232 C   0  0  0  0  0  0  0  0  0  0  0  0
    7.7693   19.4848   21.7707 F   0  0  0  0  0  0  0  0  0  0  0  0
    7.2461   21.3015   22.8321 F   0  0  0  0  0  0  0  0  0  0  0  0
    1.0690   16.1910   19.9725 C   0  0  0  0  0  0  0  0  0  0  0  0
    0.4293   15.0072   19.5553 C   0  0  0  0  0  0  0  0  0  0  0  0
   -0.4595   15.0111   18.4853 C   0  0  0  0  0  0  0  0  0  0  0  0
   -0.6990   16.2078   17.8434 C   0  0  0  0  0  0  0  0  0  0  0  0
   -0.1161   17.3705   18.1971 N   0  0  0  0  0  0  0  0  0  0  0  0
    0.7639   17.3497   19.2518 C   0  0  0  0  0  0  0  0  0  0  0  0
    2.0174   16.1081   21.1387 C   0  0  0  0  0  0  0  0  0  0  0  0
    3.7830   14.1802   22.0670 C   0  0  0  0  0  0  0  0  0  0  0  0
    2.0018   14.4762   21.9528 S   0  0  0  0  0  0  0  0  0  0  0  0
 22 23  1  0  0  0
 23 21  1  0  0  0
 21 15  1  0  0  0
 15 16  1  0  0  0
 16 17  2  0  0  0
 17 18  1  0  0  0
 18 19  2  0  0  0
 19 20  1  0  0  0
 20  1  1  0  0  0
  1  2  2  0  0  0
  1  3  1  0  0  0
  3  5  1  0  0  0
  5  6  1  0  0  0
  6  7  2  0  0  0
  7  8  1  0  0  0
  8  9  2  0  0  0
  9 12  1  0  0  0
 12 13  1  0  0  0
 12 14  1  0  0  0
  9 10  1  0  0  0
 10 11  1  0  0  0
 20 15  2  0  0  0
 10  5  2  0  0  0
  3  4  1  0  0  0
M  END
> <minimizedAffinity>
-10.20716

$$$$
OCNT-2310317


 27 30  0  0  0  0  0  0  0  0999 V2000
    1.5363   19.1819   18.8703 S   0  0  0  0  0  0  0  0  0  0  0  0
    0.6231   20.2641   18.5720 O   0  0  0  0  0  0  0  0  0  0  0  0
    1.9801   18.2664   17.8407 O   0  0  0  0  0  0  0  0  0  0  0  0
    5.3508   17.5793   22.2254 O   0  0  0  0  0  0  0  0  0  0  0  0
    5.7215   18.7096   21.9336 C   0  0  0  0  0  0  0  0  0  0  0  0
    6.8821   19.2454   22.4370 N   0  0  0  0  0  0  0  0  0  0  0  0
    7.4596   20.4527   21.8896 C   0  0  0  0  0  0  0  0  0  0  0  0
    6.3966   21.5239   21.6585 C   0  0  0  0  0  0  0  0  0  0  0  0
    5.2259   20.9467   20.9037 C   0  0  0  0  0  0  0  0  0  0  0  0
    4.3998   21.7677   20.1240 C   0  0  0  0  0  0  0  0  0  0  0  0
    3.2818   21.2315   19.4814 C   0  0  0  0  0  0  0  0  0  0  0  0
    2.9927   19.8710   19.6190 C   0  0  0  0  0  0  0  0  0  0  0  0
    3.8169   19.0335   20.3725 C   0  0  0  0  0  0  0  0  0  0  0  0
    4.9147   19.5809   21.0378 C   0  0  0  0  0  0  0  0  0  0  0  0
    7.4650   18.5879   22.9416 H   0  0  0  0  0  0  0  0  0  0  0  0
    0.8934   18.2308   20.1083 N   0  0  0  0  0  0  0  0  0  0  0  0
    0.2697   18.7448   20.7253 H   0  0  0  0  0  0  0  0  0  0  0  0
    0.6238   16.8582   19.8561 C   0  0  0  0  0  0  0  0  0  0  0  0
   -0.2911   16.4864   18.8658 C   0  0  0  0  0  0  0  0  0  0  0  0
   -0.5993   15.1473   18.6392 C   0  0  0  0  0  0  0  0  0  0  0  0
   -0.0063   14.1412   19.4084 C   0  0  0  0  0  0  0  0  0  0  0  0
    0.9076   14.4908   20.4215 C   0  0  0  0  0  0  0  0  0  0  0  0
    1.2080   15.8409   20.6268 C   0  0  0  0  0  0  0  0  0  0  0  0
    2.1060   15.8911   21.6729 N   0  0  0  0  0  0  0  0  0  0  0  0
    2.3782   14.6291   22.1302 C   0  0  0  0  0  0  0  0  0  0  0  0
    1.6560   13.7405   21.3696 C   0  0  0  0  0  0  0  0  0  0  0  0
    2.4953   16.7371   22.0654 H   0  0  0  0  0  0  0  0  0  0  0  0
  4  5  2  0  0  0
  5  6  1  0  0  0
  6  7  1  0  0  0
  7  8  1  0  0  0
  8  9  1  0  0  0
  9 10  1  0  0  0
 10 11  2  0  0  0
 11 12  1  0  0  0
 12  1  1  0  0  0
  1  2  2  0  0  0
  1  3  2  0  0  0
  1 16  1  0  0  0
 16 18  1  0  0  0
 18 19  1  0  0  0
 19 20  2  0  0  0
 20 21  1  0  0  0
 21 22  2  0  0  0
 22 23  1  0  0  0
 23 24  1  0  0  0
 24 25  1  0  0  0
 25 26  2  0  0  0
 12 13  2  0  0  0
 13 14  1  0  0  0
 14  5  1  0  0  0
 14  9  2  0  0  0
 23 18  2  0  0  0
 26 22  1  0  0  0
  6 15  1  0  0  0
 16 17  1  0  0  0
 24 27  1  0  0  0
M  END
> <minimizedAffinity>
-10.88761

$$$$
OCNT-2310324


 24 27  0  0  0  0  0  0  0  0999 V2000
    3.6436   17.8160   23.3234 O   0  0  0  0  0  0  0  0  0  0  0  0
    4.2099   17.8476   22.2346 C   0  0  0  0  0  0  0  0  0  0  0  0
    3.9284   16.9621   21.2244 N   0  0  0  0  0  0  0  0  0  0  0  0
    4.3326   17.1088   20.3126 H   0  0  0  0  0  0  0  0  0  0  0  0
    5.2239   18.8393   21.9262 C   0  0  0  0  0  0  0  0  0  0  0  0
    6.5656   18.9314   22.2967 C   0  0  0  0  0  0  0  0  0  0  0  0
    7.0131   20.1130   21.6859 C   0  0  0  0  0  0  0  0  0  0  0  0
    6.0271   20.7116   20.9922 C   0  0  0  0  0  0  0  0  0  0  0  0
    6.5291   21.8886   20.4028 C   0  0  0  0  0  0  0  0  0  0  0  0
    7.8437   21.8965   20.8151 C   0  0  0  0  0  0  0  0  0  0  0  0
    8.1651   20.8252   21.5989 O   0  0  0  0  0  0  0  0  0  0  0  0
    4.9105   19.9380   21.1312 N   0  0  0  0  0  0  0  0  0  0  0  0
    4.0061   20.1377   20.7204 H   0  0  0  0  0  0  0  0  0  0  0  0
    2.8723   15.9833   21.3321 C   0  0  0  0  0  0  0  0  0  0  0  0
    1.7421   16.3002   20.3959 C   0  0  0  0  0  0  0  0  0  0  0  0
    1.5738   17.5880   19.8800 C   0  0  0  0  0  0  0  0  0  0  0  0
    0.5261   17.8661   18.9922 C   0  0  0  0  0  0  0  0  0  0  0  0
   -0.3862   16.8763   18.5809 C   0  0  0  0  0  0  0  0  0  0  0  0
   -0.1902   15.5870   19.1041 C   0  0  0  0  0  0  0  0  0  0  0  0
    0.8530   15.3095   19.9877 C   0  0  0  0  0  0  0  0  0  0  0  0
    0.9959   14.0558   20.4421 F   0  0  0  0  0  0  0  0  0  0  0  0
   -1.5337   17.1351   17.6215 C   0  0  0  0  0  0  0  0  0  0  0  0
   -1.9670   18.5393   17.2763 C   0  0  0  0  0  0  0  0  0  0  0  0
   -1.2860   17.6913   16.2401 C   0  0  0  0  0  0  0  0  0  0  0  0
  1  2  2  0  0  0
  2  3  1  0  0  0
  3 14  1  0  0  0
 14 15  1  0  0  0
 15 16  1  0  0  0
 16 17  2  0  0  0
 17 18  1  0  0  0
 18 22  1  0  0  0
 22 23  1  0  0  0
 23 24  1  0  0  0
 18 19  2  0  0  0
 19 20  1  0  0  0
 20 21  1  0  0  0
  2  5  1  0  0  0
  5  6  2  0  0  0
  6  7  1  0  0  0
  7  8  2  0  0  0
  8  9  1  0  0  0
  9 10  2  0  0  0
 10 11  1  0  0  0
  8 12  1  0  0  0
 20 15  2  0  0  0
 12  5  1  0  0  0
 24 22  1  0  0  0
 11  7  1  0  0  0
  3  4  1  0  0  0
 12 13  1  0  0  0
M  END
> <minimizedAffinity>
-7.98984

$$$$
OCNT-2310327


 27 31  0  0  0  0  0  0  0  0999 V2000
   -0.3107   13.7136   19.4811 O   0  0  0  0  0  0  0  0  0  0  0  0
    0.1541   14.8553   19.4352 C   0  0  0  0  0  0  0  0  0  0  0  0
    1.1679   15.2594   20.2936 N   0  0  0  0  0  0  0  0  0  0  0  0
    1.7685   16.4924   20.2235 N   0  0  0  0  0  0  0  0  0  0  0  0
    2.7808   16.4501   21.0407 C   0  0  0  0  0  0  0  0  0  0  0  0
    3.0343   15.1027   21.6736 C   0  0  0  0  0  0  0  0  0  0  0  0
    1.7242   14.4081   21.3375 C   0  0  0  0  0  0  0  0  0  0  0  0
    3.6649   17.6124   21.2929 C   0  0  0  0  0  0  0  0  0  0  0  0
    4.4277   17.7129   22.4625 C   0  0  0  0  0  0  0  0  0  0  0  0
    5.2528   18.8240   22.6671 C   0  0  0  0  0  0  0  0  0  0  0  0
    5.3164   19.8314   21.7053 C   0  0  0  0  0  0  0  0  0  0  0  0
    6.3325   21.1949   21.9623 Cl  0  0  0  0  0  0  0  0  0  0  0  0
    4.5625   19.7389   20.5379 C   0  0  0  0  0  0  0  0  0  0  0  0
    3.7376   18.6297   20.3313 C   0  0  0  0  0  0  0  0  0  0  0  0
    0.7673   14.3429   22.4884 C   0  0  0  0  0  0  0  0  0  0  0  0
   -0.5351   13.8940   22.5928 C   0  0  0  0  0  0  0  0  0  0  0  0
   -0.9269   14.0978   23.9368 C   0  0  0  0  0  0  0  0  0  0  0  0
    0.1560   14.6594   24.5696 C   0  0  0  0  0  0  0  0  0  0  0  0
    1.1886   14.8121   23.7021 O   0  0  0  0  0  0  0  0  0  0  0  0
   -0.3087   15.9436   18.4484 C   0  0  0  0  0  0  0  0  0  0  0  0
    0.2630   17.2645   18.7644 N   0  0  0  0  0  0  0  0  0  0  0  0
    0.9316   17.9586   17.6494 C   0  0  0  0  0  0  0  0  0  0  0  0
    1.4086   19.2000   18.4204 C   0  0  0  0  0  0  0  0  0  0  0  0
    0.2505   19.4485   19.4011 C   0  0  0  0  0  0  0  0  0  0  0  0
   -0.7263   18.3139   19.0561 C   0  0  0  0  0  0  0  0  0  0  0  0
   -1.3723   18.6138   17.6957 C   0  0  0  0  0  0  0  0  0  0  0  0
   -0.2171   18.3707   16.7167 C   0  0  0  0  0  0  0  0  0  0  0  0
  1  2  2  0  0  0
  2 20  1  0  0  0
 20 21  1  0  0  0
 21 22  1  0  0  0
 22 23  1  0  0  0
 23 24  1  0  0  0
 24 25  1  0  0  0
 25 26  1  0  0  0
 26 27  1  0  0  0
  2  3  1  0  0  0
  3  4  1  0  0  0
  4  5  2  0  0  0
  5  8  1  0  0  0
  8  9  1  0  0  0
  9 10  2  0  0  0
 10 11  1  0  0  0
 11 12  1  0  0  0
 11 13  2  0  0  0
 13 14  1  0  0  0
  5  6  1  0  0  0
  6  7  1  0  0  0
  7 15  1  0  0  0
 15 16  2  0  0  0
 16 17  1  0  0  0
 17 18  2  0  0  0
 18 19  1  0  0  0
 25 21  1  0  0  0
  7  3  1  0  0  0
 19 15  1  0  0  0
 27 22  1  0  0  0
 14  8  2  0  0  0
M  END
> <minimizedAffinity>
-9.85736

$$$$
OCNT-2310338


 29 33  0  0  0  0  0  0  0  0999 V2000
   -0.2118   17.8040   18.0725 C   0  0  0  0  0  0  0  0  0  0  0  0
   -1.1216   18.3952   17.4965 O   0  0  0  0  0  0  0  0  0  0  0  0
    0.9539   18.4142   18.5209 N   0  0  0  0  0  0  0  0  0  0  0  0
    2.0695   17.6875   19.1343 C   0  0  0  0  0  0  0  0  0  0  0  0
    3.3038   18.5597   19.3260 C   0  0  0  0  0  0  0  0  0  0  0  0
    2.9547   19.8327   20.1144 C   0  0  0  0  0  0  0  0  0  0  0  0
    1.6611   20.5060   19.6110 C   0  0  0  0  0  0  0  0  0  0  0  0
    1.1094   19.8554   18.3468 C   0  0  0  0  0  0  0  0  0  0  0  0
   -1.0524   15.6691   16.0214 C   0  0  0  0  0  0  0  0  0  0  0  0
   -0.7784   15.4215   17.4098 N   0  0  0  0  0  0  0  0  0  0  0  0
   -0.7268   14.1353   17.9988 C   0  0  0  0  0  0  0  0  0  0  0  0
   -0.9992   13.0639   17.4860 O   0  0  0  0  0  0  0  0  0  0  0  0
   -0.2739   14.3790   19.3081 N   0  0  0  0  0  0  0  0  0  0  0  0
   -0.0063   13.4192   20.3485 C   0  0  0  0  0  0  0  0  0  0  0  0
    1.3281   13.7339   21.0250 C   0  0  0  0  0  0  0  0  0  0  0  0
    1.5590   15.2314   21.3298 C   0  0  0  0  0  0  0  0  0  0  0  0
    0.4897   16.1917   20.7895 C   0  0  0  0  0  0  0  0  0  0  0  0
   -0.0411   15.7276   19.4808 C   0  0  0  0  0  0  0  0  0  0  0  0
   -0.3359   16.3541   18.3326 C   0  0  0  0  0  0  0  0  0  0  0  0
    4.1168   20.7923   20.1605 C   0  0  0  0  0  0  0  0  0  0  0  0
    4.2007   22.0300   19.5401 C   0  0  0  0  0  0  0  0  0  0  0  0
    5.4275   22.5729   19.8247 N   0  0  0  0  0  0  0  0  0  0  0  0
    6.1374   21.7262   20.6259 C   0  0  0  0  0  0  0  0  0  0  0  0
    7.3801   21.9754   21.0791 N   0  0  0  0  0  0  0  0  0  0  0  0
    7.8691   20.9738   21.8446 C   0  0  0  0  0  0  0  0  0  0  0  0
    7.2000   19.8011   22.1667 C   0  0  0  0  0  0  0  0  0  0  0  0
    5.9110   19.5977   21.6707 C   0  0  0  0  0  0  0  0  0  0  0  0
    5.3535   20.6028   20.8607 C   0  0  0  0  0  0  0  0  0  0  0  0
    5.7851   23.4607   19.4992 H   0  0  0  0  0  0  0  0  0  0  0  0
  9 10  1  0  0  0
 10 11  1  0  0  0
 11 12  2  0  0  0
 11 13  1  0  0  0
 13 14  1  0  0  0
 14 15  1  0  0  0
 15 16  1  0  0  0
 16 17  1  0  0  0
 17 18  1  0  0  0
 18 19  2  0  0  0
 19  1  1  0  0  0
  1  2  2  0  0  0
  1  3  1  0  0  0
  3  4  1  0  0  0
  4  5  1  0  0  0
  5  6  1  0  0  0
  6 20  1  0  0  0
 20 21  2  0  0  0
 21 22  1  0  0  0
 22 23  1  0  0  0
 23 24  1  0  0  0
 24 25  2  0  0  0
 25 26  1  0  0  0
 26 27  2  0  0  0
 27 28  1  0  0  0
  6  7  1  0  0  0
  7  8  1  0  0  0
 19 10  1  0  0  0
  8  3  1  0  0  0
 18 13  1  0  0  0
 28 20  1  0  0  0
 28 23  2  0  0  0
 22 29  1  0  0  0
M  END
> <minimizedAffinity>
-4.56283

$$$$
