OCNT-2308855


 24 26  0  0  0  0  0  0  0  0999 V2000
    3.0939   19.7740   20.2166 N   0  0  0  0  0  0  0  0  0  0  0  0
    2.6282   18.7871   19.3768 C   0  0  0  0  0  0  0  0  0  0  0  0
    3.2841   17.8821   18.8766 O   0  0  0  0  0  0  0  0  0  0  0  0
    1.2863   18.9256   19.1461 N   0  0  0  0  0  0  0  0  0  0  0  0
    2.4040   20.4430   20.5208 H   0  0  0  0  0  0  0  0  0  0  0  0
    0.7360   19.6517   19.5808 H   0  0  0  0  0  0  0  0  0  0  0  0
    7.4799   22.1227   20.3514 C   0  0  0  0  0  0  0  0  0  0  0  0
    6.5437   21.0389   20.7957 C   0  0  0  0  0  0  0  0  0  0  0  0
    5.2624   20.9628   20.2575 C   0  0  0  0  0  0  0  0  0  0  0  0
    4.4081   19.9568   20.6945 C   0  0  0  0  0  0  0  0  0  0  0  0
    4.8675   19.0629   21.6623 C   0  0  0  0  0  0  0  0  0  0  0  0
    6.1597   19.2046   22.1571 C   0  0  0  0  0  0  0  0  0  0  0  0
    6.6764   18.2567   23.1970 C   0  0  0  0  0  0  0  0  0  0  0  0
    6.9975   20.1764   21.7353 N   0  0  0  0  0  0  0  0  0  0  0  0
    0.5267   18.0187   18.3024 C   0  0  0  0  0  0  0  0  0  0  0  0
    0.4384   16.6533   18.9804 C   0  0  0  0  0  0  0  0  0  0  0  0
   -0.2853   15.6218   18.3825 C   0  0  0  0  0  0  0  0  0  0  0  0
   -0.3468   14.3855   19.0197 C   0  0  0  0  0  0  0  0  0  0  0  0
    0.3109   14.2085   20.2312 C   0  0  0  0  0  0  0  0  0  0  0  0
    1.0102   15.2795   20.7610 C   0  0  0  0  0  0  0  0  0  0  0  0
    1.0930   16.4914   20.1694 N   0  0  0  0  0  0  0  0  0  0  0  0
   -0.8135   18.6564   18.0065 C   0  0  0  0  0  0  0  0  0  0  0  0
   -1.3957   18.8799   16.6265 C   0  0  0  0  0  0  0  0  0  0  0  0
   -1.9977   17.8421   17.5324 C   0  0  0  0  0  0  0  0  0  0  0  0
  7  8  1  0  0  0
  8  9  1  0  0  0
  9 10  2  0  0  0
 10  1  1  0  0  0
  1  2  1  0  0  0
  2  3  2  0  0  0
  2  4  1  0  0  0
  4 15  1  0  0  0
 15 16  1  0  0  0
 16 17  2  0  0  0
 17 18  1  0  0  0
 18 19  2  0  0  0
 19 20  1  0  0  0
 20 21  2  0  0  0
 15 22  1  0  0  0
 22 23  1  0  0  0
 23 24  1  0  0  0
 10 11  1  0  0  0
 11 12  2  0  0  0
 12 13  1  0  0  0
 12 14  1  0  0  0
 14  8  2  0  0  0
 21 16  1  0  0  0
 24 22  1  0  0  0
  1  5  1  0  0  0
  4  6  1  0  0  0
M  END
> <minimizedAffinity>
-7.84118

$$$$
OCNT-2308857


 34 37  0  0  0  0  0  0  0  0999 V2000
    0.2133   14.8258   20.0538 C   0  0  0  0  0  0  0  0  0  0  0  0
   -0.3300   13.9771   21.0225 C   0  0  0  0  0  0  0  0  0  0  0  0
    0.3598   13.7663   22.2166 C   0  0  0  0  0  0  0  0  0  0  0  0
    1.5812   14.4068   22.4433 C   0  0  0  0  0  0  0  0  0  0  0  0
    2.1089   15.2766   21.4778 C   0  0  0  0  0  0  0  0  0  0  0  0
    1.4238   15.4872   20.2771 C   0  0  0  0  0  0  0  0  0  0  0  0
    3.4210   15.9529   21.6673 C   0  0  0  0  0  0  0  0  0  0  0  0
    4.3765   15.2612   21.9982 O   0  0  0  0  0  0  0  0  0  0  0  0
    3.4175   17.3113   21.4152 N   0  0  0  0  0  0  0  0  0  0  0  0
    2.5675   17.7070   21.0327 H   0  0  0  0  0  0  0  0  0  0  0  0
    4.4979   18.2091   21.5480 C   0  0  0  0  0  0  0  0  0  0  0  0
    5.6379   17.9521   22.3134 C   0  0  0  0  0  0  0  0  0  0  0  0
    6.6682   18.8960   22.4044 C   0  0  0  0  0  0  0  0  0  0  0  0
    6.5760   20.1108   21.7200 C   0  0  0  0  0  0  0  0  0  0  0  0
    7.6564   21.1531   21.8426 C   0  0  0  0  0  0  0  0  0  0  0  0
    7.6907   22.0294   20.5945 C   0  0  0  0  0  0  0  0  0  0  0  0
    6.3722   22.5114   20.2496 N   0  0  0  0  0  0  0  0  0  0  0  0
    5.2803   21.6749   20.2459 C   0  0  0  0  0  0  0  0  0  0  0  0
    4.2393   21.9887   19.6822 O   0  0  0  0  0  0  0  0  0  0  0  0
    5.4257   20.3769   20.9612 C   0  0  0  0  0  0  0  0  0  0  0  0
    4.3956   19.4319   20.8760 C   0  0  0  0  0  0  0  0  0  0  0  0
    6.2736   23.3193   19.6462 H   0  0  0  0  0  0  0  0  0  0  0  0
   -0.6347   15.0803   18.5116 S   0  0  0  0  0  0  0  0  0  0  0  0
   -0.8755   13.7857   17.9109 O   0  0  0  0  0  0  0  0  0  0  0  0
   -1.7221   15.9996   18.7718 O   0  0  0  0  0  0  0  0  0  0  0  0
    0.4995   15.9259   17.5885 N   0  0  0  0  0  0  0  0  0  0  0  0
    0.7657   15.4120   16.7500 H   0  0  0  0  0  0  0  0  0  0  0  0
    1.4518   20.3901   19.4937 C   0  0  0  0  0  0  0  0  0  0  0  0
    0.8875   19.5344   18.3981 C   0  0  0  0  0  0  0  0  0  0  0  0
    0.2621   20.1196   17.2904 C   0  0  0  0  0  0  0  0  0  0  0  0
   -0.2857   19.3219   16.2847 C   0  0  0  0  0  0  0  0  0  0  0  0
   -0.2197   17.9323   16.3804 C   0  0  0  0  0  0  0  0  0  0  0  0
    0.3872   17.3411   17.4863 C   0  0  0  0  0  0  0  0  0  0  0  0
    0.9328   18.1373   18.4964 C   0  0  0  0  0  0  0  0  0  0  0  0
 28 29  1  0  0  0
 29 30  2  0  0  0
 30 31  1  0  0  0
 31 32  2  0  0  0
 32 33  1  0  0  0
 33 26  1  0  0  0
 26 23  1  0  0  0
 23 24  2  0  0  0
 23 25  2  0  0  0
 23  1  1  0  0  0
  1  2  2  0  0  0
  2  3  1  0  0  0
  3  4  2  0  0  0
  4  5  1  0  0  0
  5  7  1  0  0  0
  7  8  2  0  0  0
  7  9  1  0  0  0
  9 11  1  0  0  0
 11 12  1  0  0  0
 12 13  2  0  0  0
 13 14  1  0  0  0
 14 15  1  0  0  0
 15 16  1  0  0  0
 16 17  1  0  0  0
 17 18  1  0  0  0
 18 19  2  0  0  0
 18 20  1  0  0  0
 20 21  1  0  0  0
  5  6  2  0  0  0
 33 34  2  0  0  0
 34 29  1  0  0  0
  6  1  1  0  0  0
 21 11  2  0  0  0
 20 14  2  0  0  0
 26 27  1  0  0  0
  9 10  1  0  0  0
 17 22  1  0  0  0
M  END
> <minimizedAffinity>
-5.39168

$$$$
OCNT-2308859


 22 24  0  0  0  0  0  0  0  0999 V2000
    2.1750   16.6602   21.2098 N   0  0  0  0  0  0  0  0  0  0  0  0
    1.9482   16.2463   22.1039 H   0  0  0  0  0  0  0  0  0  0  0  0
    0.0320   17.1457   18.2003 C   0  0  0  0  0  0  0  0  0  0  0  0
   -0.5620   15.8855   18.0786 C   0  0  0  0  0  0  0  0  0  0  0  0
   -0.2578   14.8745   18.9869 C   0  0  0  0  0  0  0  0  0  0  0  0
    0.6446   15.1085   20.0284 C   0  0  0  0  0  0  0  0  0  0  0  0
    1.2622   16.3519   20.1839 C   0  0  0  0  0  0  0  0  0  0  0  0
    0.9373   17.3605   19.2561 C   0  0  0  0  0  0  0  0  0  0  0  0
    0.4449   19.5367   17.5121 C   0  0  0  0  0  0  0  0  0  0  0  0
   -0.3091   18.2403   17.2051 C   0  0  0  0  0  0  0  0  0  0  0  0
   -1.8179   18.4894   17.1388 C   0  0  0  0  0  0  0  0  0  0  0  0
    3.2767   17.4458   21.1825 C   0  0  0  0  0  0  0  0  0  0  0  0
    3.4117   18.6330   20.6343 N   0  0  0  0  0  0  0  0  0  0  0  0
    4.6939   19.1379   20.8186 C   0  0  0  0  0  0  0  0  0  0  0  0
    5.5418   18.2894   21.5022 C   0  0  0  0  0  0  0  0  0  0  0  0
    4.7182   16.8596   21.9430 S   0  0  0  0  0  0  0  0  0  0  0  0
    5.0208   20.4960   20.2494 C   0  0  0  0  0  0  0  0  0  0  0  0
    4.4588   21.6406   21.1200 C   0  0  0  0  0  0  0  0  0  0  0  0
    5.1998   21.8846   22.3259 O   0  0  0  0  0  0  0  0  0  0  0  0
    6.6033   21.6463   22.1842 C   0  0  0  0  0  0  0  0  0  0  0  0
    7.0628   21.6682   20.7305 C   0  0  0  0  0  0  0  0  0  0  0  0
    6.4320   20.6347   19.9686 O   0  0  0  0  0  0  0  0  0  0  0  0
  9 10  1  0  0  0
 10 11  1  0  0  0
 10  3  1  0  0  0
  3  4  2  0  0  0
  4  5  1  0  0  0
  5  6  2  0  0  0
  6  7  1  0  0  0
  7  1  1  0  0  0
  1 12  1  0  0  0
 12 13  2  0  0  0
 13 14  1  0  0  0
 14 17  1  0  0  0
 17 18  1  0  0  0
 18 19  1  0  0  0
 19 20  1  0  0  0
 20 21  1  0  0  0
 21 22  1  0  0  0
 14 15  2  0  0  0
 15 16  1  0  0  0
  7  8  2  0  0  0
  8  3  1  0  0  0
 16 12  1  0  0  0
 22 17  1  0  0  0
  1  2  1  0  0  0
M  END
> <minimizedAffinity>
-9.97137

$$$$
OCNT-2308860


 23 24  0  0  0  0  0  0  0  0999 V2000
    2.1230   16.8433   20.6022 C   0  0  0  0  0  0  0  0  0  0  0  0
    2.2177   15.6545   21.3315 C   0  0  0  0  0  0  0  0  0  0  0  0
    1.3285   14.6074   21.0843 C   0  0  0  0  0  0  0  0  0  0  0  0
    0.3503   14.7529   20.1106 C   0  0  0  0  0  0  0  0  0  0  0  0
   -0.5012   13.7456   19.8769 F   0  0  0  0  0  0  0  0  0  0  0  0
    0.2345   15.9257   19.3720 C   0  0  0  0  0  0  0  0  0  0  0  0
    1.1192   16.9782   19.6134 C   0  0  0  0  0  0  0  0  0  0  0  0
    5.0665   16.9417   20.9382 O   0  0  0  0  0  0  0  0  0  0  0  0
    4.3657   17.9502   20.9328 C   0  0  0  0  0  0  0  0  0  0  0  0
    2.9871   17.9478   20.7851 N   0  0  0  0  0  0  0  0  0  0  0  0
    2.4972   18.8388   20.7978 H   0  0  0  0  0  0  0  0  0  0  0  0
    5.0220   19.3002   21.0953 C   0  0  0  0  0  0  0  0  0  0  0  0
    6.0219   19.3601   22.0221 N   0  0  0  0  0  0  0  0  0  0  0  0
    6.6405   20.5470   22.2021 C   0  0  0  0  0  0  0  0  0  0  0  0
    6.3145   21.6964   21.5013 C   0  0  0  0  0  0  0  0  0  0  0  0
    5.2929   21.6254   20.5604 C   0  0  0  0  0  0  0  0  0  0  0  0
    4.6392   20.4145   20.3557 C   0  0  0  0  0  0  0  0  0  0  0  0
    3.6535   20.3662   19.4465 F   0  0  0  0  0  0  0  0  0  0  0  0
    1.1003   18.1876   18.9561 O   0  0  0  0  0  0  0  0  0  0  0  0
   -0.1675   18.8379   18.8115 C   0  0  0  0  0  0  0  0  0  0  0  0
   -0.5018   18.9565   17.3329 C   0  0  0  0  0  0  0  0  0  0  0  0
   -0.0262   17.8744   16.6634 F   0  0  0  0  0  0  0  0  0  0  0  0
   -1.8490   18.9496   17.1677 F   0  0  0  0  0  0  0  0  0  0  0  0
  8  9  2  0  0  0
  9 10  1  0  0  0
 10  1  1  0  0  0
  1  2  1  0  0  0
  2  3  2  0  0  0
  3  4  1  0  0  0
  4  5  1  0  0  0
  4  6  2  0  0  0
  6  7  1  0  0  0
  7 19  1  0  0  0
 19 20  1  0  0  0
 20 21  1  0  0  0
 21 22  1  0  0  0
 21 23  1  0  0  0
  9 12  1  0  0  0
 12 13  1  0  0  0
 13 14  2  0  0  0
 14 15  1  0  0  0
 15 16  2  0  0  0
 16 17  1  0  0  0
 17 18  1  0  0  0
  7  1  2  0  0  0
 17 12  2  0  0  0
 10 11  1  0  0  0
M  END
> <minimizedAffinity>
-10.80354

$$$$
OCNT-2308866


 25 27  0  0  0  0  0  0  0  0999 V2000
    1.8848   17.9385   19.4852 C   0  0  0  0  0  0  0  0  0  0  0  0
    1.0928   18.2054   18.5884 O   0  0  0  0  0  0  0  0  0  0  0  0
    1.8342   16.7548   20.1877 N   0  0  0  0  0  0  0  0  0  0  0  0
    2.7044   16.4266   20.5771 H   0  0  0  0  0  0  0  0  0  0  0  0
    6.0131   20.0073   21.5698 C   0  0  0  0  0  0  0  0  0  0  0  0
    6.5660   21.2880   21.4106 C   0  0  0  0  0  0  0  0  0  0  0  0
    5.9853   22.2291   20.5534 C   0  0  0  0  0  0  0  0  0  0  0  0
    4.8301   21.9323   19.8291 C   0  0  0  0  0  0  0  0  0  0  0  0
    4.2802   20.6582   19.9985 C   0  0  0  0  0  0  0  0  0  0  0  0
    4.8424   19.6972   20.8387 C   0  0  0  0  0  0  0  0  0  0  0  0
    4.0224   18.5354   20.7348 C   0  0  0  0  0  0  0  0  0  0  0  0
    2.9671   18.8095   19.8831 C   0  0  0  0  0  0  0  0  0  0  0  0
    3.1611   20.0964   19.4298 N   0  0  0  0  0  0  0  0  0  0  0  0
    2.5724   20.5574   18.7518 H   0  0  0  0  0  0  0  0  0  0  0  0
    5.5929   18.3501   23.2307 C   0  0  0  0  0  0  0  0  0  0  0  0
    6.5138   19.0273   22.3865 O   0  0  0  0  0  0  0  0  0  0  0  0
    0.8968   15.7364   19.7843 C   0  0  0  0  0  0  0  0  0  0  0  0
    0.4868   14.9616   20.9582 C   0  0  0  0  0  0  0  0  0  0  0  0
    0.1238   14.3461   21.9260 C   0  0  0  0  0  0  0  0  0  0  0  0
   -0.3261   13.6082   23.1171 C   0  0  0  0  0  0  0  0  0  0  0  0
   -1.1896   12.4074   22.7179 C   0  0  0  0  0  0  0  0  0  0  0  0
   -1.7390   11.7014   23.9548 C   0  0  0  0  0  0  0  0  0  0  0  0
   -2.4113   12.7007   24.8916 C   0  0  0  0  0  0  0  0  0  0  0  0
   -1.4922   13.8846   25.1663 C   0  0  0  0  0  0  0  0  0  0  0  0
   -1.0825   14.4992   23.9442 O   0  0  0  0  0  0  0  0  0  0  0  0
 15 16  1  0  0  0
 16  5  1  0  0  0
  5  6  1  0  0  0
  6  7  2  0  0  0
  7  8  1  0  0  0
  8  9  2  0  0  0
  9 10  1  0  0  0
 10 11  1  0  0  0
 11 12  2  0  0  0
 12  1  1  0  0  0
  1  2  2  0  0  0
  1  3  1  0  0  0
  3 17  1  0  0  0
 17 18  1  0  0  0
 18 19  3  0  0  0
 19 20  1  0  0  0
 20 21  1  0  0  0
 21 22  1  0  0  0
 22 23  1  0  0  0
 23 24  1  0  0  0
 24 25  1  0  0  0
 12 13  1  0  0  0
 10  5  2  0  0  0
 25 20  1  0  0  0
 13  9  1  0  0  0
  3  4  1  0  0  0
 13 14  1  0  0  0
M  END
> <minimizedAffinity>
-6.70660

$$$$
OCNT-2308867


 23 25  0  0  0  0  0  0  0  0999 V2000
    0.8833   18.9591   18.9758 N   0  0  0  0  0  0  0  0  0  0  0  0
    2.1455   18.4344   19.0019 C   0  0  0  0  0  0  0  0  0  0  0  0
    2.9494   19.5100   19.3102 C   0  0  0  0  0  0  0  0  0  0  0  0
    2.1689   20.6243   19.4518 N   0  0  0  0  0  0  0  0  0  0  0  0
    0.9065   20.2764   19.2505 N   0  0  0  0  0  0  0  0  0  0  0  0
   -0.9204   18.4982   17.2977 C   0  0  0  0  0  0  0  0  0  0  0  0
   -0.3665   18.2527   18.7051 C   0  0  0  0  0  0  0  0  0  0  0  0
   -0.2222   16.7691   19.0087 C   0  0  0  0  0  0  0  0  0  0  0  0
    0.3931   16.3161   20.1901 C   0  0  0  0  0  0  0  0  0  0  0  0
    0.5221   14.9493   20.4532 C   0  0  0  0  0  0  0  0  0  0  0  0
    0.0411   14.0158   19.5386 C   0  0  0  0  0  0  0  0  0  0  0  0
   -0.5643   14.4568   18.3693 C   0  0  0  0  0  0  0  0  0  0  0  0
   -1.0276   13.5614   17.4874 F   0  0  0  0  0  0  0  0  0  0  0  0
   -0.6993   15.8153   18.0958 C   0  0  0  0  0  0  0  0  0  0  0  0
    4.4291   19.5866   19.4583 C   0  0  0  0  0  0  0  0  0  0  0  0
    4.9527   19.5768   20.9187 C   0  0  0  0  0  0  0  0  0  0  0  0
    6.5012   19.4392   20.9514 C   0  0  0  0  0  0  0  0  0  0  0  0
    7.1129   20.0678   22.2015 C   0  0  0  0  0  0  0  0  0  0  0  0
    6.8484   21.5727   22.2599 C   0  0  0  0  0  0  0  0  0  0  0  0
    5.5595   21.9883   21.5509 C   0  0  0  0  0  0  0  0  0  0  0  0
    4.5008   20.8925   21.6250 C   0  0  0  0  0  0  0  0  0  0  0  0
    4.3408   18.4430   21.6597 C   0  0  0  0  0  0  0  0  0  0  0  0
    3.8403   17.5387   22.1873 N   0  0  0  0  0  0  0  0  0  0  0  0
  6  7  1  0  0  0
  7  8  1  0  0  0
  8  9  2  0  0  0
  9 10  1  0  0  0
 10 11  2  0  0  0
 11 12  1  0  0  0
 12 13  1  0  0  0
 12 14  2  0  0  0
  7  1  1  0  0  0
  1  2  1  0  0  0
  2  3  2  0  0  0
  3 15  1  0  0  0
 15 16  1  0  0  0
 16 22  1  0  0  0
 22 23  3  0  0  0
 16 17  1  0  0  0
 17 18  1  0  0  0
 18 19  1  0  0  0
 19 20  1  0  0  0
 20 21  1  0  0  0
  3  4  1  0  0  0
  4  5  2  0  0  0
 14  8  1  0  0  0
  5  1  1  0  0  0
 21 16  1  0  0  0
M  END
> <minimizedAffinity>
-9.37313

$$$$
OCNT-2308870


 27 29  0  0  0  0  0  0  0  0999 V2000
    1.4245   16.5393   19.2007 N   0  0  0  0  0  0  0  0  0  0  0  0
    1.1467   17.8817   19.3693 C   0  0  0  0  0  0  0  0  0  0  0  0
    0.0640   18.4317   19.2039 O   0  0  0  0  0  0  0  0  0  0  0  0
    2.3858   16.2228   19.2553 H   0  0  0  0  0  0  0  0  0  0  0  0
    0.1263   14.5333   19.7253 C   0  0  0  0  0  0  0  0  0  0  0  0
    0.4997   15.5618   18.8702 C   0  0  0  0  0  0  0  0  0  0  0  0
   -0.2339   15.4014   17.6671 C   0  0  0  0  0  0  0  0  0  0  0  0
   -1.0347   14.2868   17.7994 C   0  0  0  0  0  0  0  0  0  0  0  0
   -1.9948   13.6629   16.8574 C   0  0  0  0  0  0  0  0  0  0  0  0
   -0.8050   13.7722   19.0477 N   0  0  0  0  0  0  0  0  0  0  0  0
   -1.2477   12.9484   19.4376 H   0  0  0  0  0  0  0  0  0  0  0  0
    0.5276   14.1838   21.0660 C   0  0  0  0  0  0  0  0  0  0  0  0
   -0.2298   14.1465   22.0277 O   0  0  0  0  0  0  0  0  0  0  0  0
    2.5942   14.7483   22.0050 C   0  0  0  0  0  0  0  0  0  0  0  0
    1.8632   13.9033   21.1154 O   0  0  0  0  0  0  0  0  0  0  0  0
    2.3195   18.7144   19.7596 C   0  0  0  0  0  0  0  0  0  0  0  0
    2.4462   20.0479   19.3593 C   0  0  0  0  0  0  0  0  0  0  0  0
    3.5672   20.7954   19.7486 C   0  0  0  0  0  0  0  0  0  0  0  0
    4.5851   20.2405   20.5413 C   0  0  0  0  0  0  0  0  0  0  0  0
    4.4434   18.8905   20.9071 C   0  0  0  0  0  0  0  0  0  0  0  0
    3.3318   18.1317   20.5221 C   0  0  0  0  0  0  0  0  0  0  0  0
    5.7100   20.9707   20.9278 N   0  0  0  0  0  0  0  0  0  0  0  0
    6.1798   21.0672   22.3022 C   0  0  0  0  0  0  0  0  0  0  0  0
    7.4777   21.8452   22.1730 C   0  0  0  0  0  0  0  0  0  0  0  0
    7.6870   21.7408   20.6967 C   0  0  0  0  0  0  0  0  0  0  0  0
    8.9555   22.1996   20.0616 C   0  0  0  0  0  0  0  0  0  0  0  0
    6.6913   21.2594   20.0222 N   0  0  0  0  0  0  0  0  0  0  0  0
 14 15  1  0  0  0
 15 12  1  0  0  0
 12 13  2  0  0  0
 12  5  1  0  0  0
  5  6  2  0  0  0
  6  1  1  0  0  0
  1  2  1  0  0  0
  2  3  2  0  0  0
  2 16  1  0  0  0
 16 17  1  0  0  0
 17 18  2  0  0  0
 18 19  1  0  0  0
 19 22  1  0  0  0
 22 23  1  0  0  0
 23 24  1  0  0  0
 24 25  1  0  0  0
 25 26  1  0  0  0
 25 27  2  0  0  0
 19 20  2  0  0  0
 20 21  1  0  0  0
  6  7  1  0  0  0
  7  8  2  0  0  0
  8  9  1  0  0  0
  8 10  1  0  0  0
 10  5  1  0  0  0
 21 16  2  0  0  0
 27 22  1  0  0  0
  1  4  1  0  0  0
 10 11  1  0  0  0
M  END
> <minimizedAffinity>
-3.86971

$$$$
OCNT-2308871


 22 25  0  0  0  0  0  0  0  0999 V2000
    0.3868   17.8592   19.0521 N   0  0  0  0  0  0  0  0  0  0  0  0
    1.6491   18.0498   19.5299 C   0  0  0  0  0  0  0  0  0  0  0  0
    1.8478   19.4064   19.3928 C   0  0  0  0  0  0  0  0  0  0  0  0
    0.7252   19.9731   18.8454 N   0  0  0  0  0  0  0  0  0  0  0  0
   -0.1670   19.0109   18.6398 N   0  0  0  0  0  0  0  0  0  0  0  0
    3.0205   20.2105   19.7404 C   0  0  0  0  0  0  0  0  0  0  0  0
    4.1789   19.6952   20.1682 N   0  0  0  0  0  0  0  0  0  0  0  0
    4.9665   20.7650   20.3663 N   0  0  0  0  0  0  0  0  0  0  0  0
    4.3447   21.9500   20.0788 C   0  0  0  0  0  0  0  0  0  0  0  0
    3.0735   21.6213   19.6677 C   0  0  0  0  0  0  0  0  0  0  0  0
    6.3532   20.5993   20.8479 C   0  0  0  0  0  0  0  0  0  0  0  0
    6.8205   21.6682   21.8633 C   0  0  0  0  0  0  0  0  0  0  0  0
    7.5504   20.5263   22.6053 C   0  0  0  0  0  0  0  0  0  0  0  0
    6.5294   19.5536   21.9737 C   0  0  0  0  0  0  0  0  0  0  0  0
   -0.3516   16.6136   18.9524 C   0  0  0  0  0  0  0  0  0  0  0  0
    0.2864   14.8711   20.7910 C   0  0  0  0  0  0  0  0  0  0  0  0
   -0.1425   14.0741   19.5783 C   0  0  0  0  0  0  0  0  0  0  0  0
    0.4727   15.4431   19.3982 C   0  0  0  0  0  0  0  0  0  0  0  0
    1.8081   13.1928   21.3392 F   0  0  0  0  0  0  0  0  0  0  0  0
    1.4502   14.4637   21.6252 C   0  0  0  0  0  0  0  0  0  0  0  0
    2.5221   15.2595   21.4193 F   0  0  0  0  0  0  0  0  0  0  0  0
    1.1262   14.5229   22.9352 F   0  0  0  0  0  0  0  0  0  0  0  0
 19 20  1  0  0  0
 20 21  1  0  0  0
 20 22  1  0  0  0
 20 16  1  0  0  0
 16 17  1  0  0  0
 17 18  1  0  0  0
 18 15  1  0  0  0
 15  1  1  0  0  0
  1  2  1  0  0  0
  2  3  2  0  0  0
  3  6  1  0  0  0
  6  7  2  0  0  0
  7  8  1  0  0  0
  8 11  1  0  0  0
 11 12  1  0  0  0
 12 13  1  0  0  0
 13 14  1  0  0  0
  8  9  1  0  0  0
  9 10  2  0  0  0
  3  4  1  0  0  0
  4  5  2  0  0  0
 18 16  1  0  0  0
  5  1  1  0  0  0
 10  6  1  0  0  0
 14 11  1  0  0  0
M  END
> <minimizedAffinity>
-9.63478

$$$$
OCNT-2308896


 26 28  0  0  0  0  0  0  0  0999 V2000
    1.6572   19.0595   18.7650 N   0  0  0  0  0  0  0  0  0  0  0  0
    1.8614   20.2683   19.3926 C   0  0  0  0  0  0  0  0  0  0  0  0
    1.0062   21.1108   19.6430 O   0  0  0  0  0  0  0  0  0  0  0  0
    2.4070   18.3750   18.6813 H   0  0  0  0  0  0  0  0  0  0  0  0
   -2.5919   18.5774   16.3552 C   0  0  0  0  0  0  0  0  0  0  0  0
   -1.4358   18.3644   17.1919 N   0  0  0  0  0  0  0  0  0  0  0  0
   -0.4020   19.2268   17.3831 C   0  0  0  0  0  0  0  0  0  0  0  0
    0.4540   18.6019   18.2536 C   0  0  0  0  0  0  0  0  0  0  0  0
   -0.1523   17.3353   18.5397 C   0  0  0  0  0  0  0  0  0  0  0  0
   -1.3176   17.2097   17.8732 N   0  0  0  0  0  0  0  0  0  0  0  0
    0.3767   16.2834   19.4250 C   0  0  0  0  0  0  0  0  0  0  0  0
   -0.1674   15.0014   19.4198 C   0  0  0  0  0  0  0  0  0  0  0  0
    0.3635   14.0415   20.2774 C   0  0  0  0  0  0  0  0  0  0  0  0
    1.4178   14.3845   21.1145 C   0  0  0  0  0  0  0  0  0  0  0  0
    1.9039   15.6803   21.0605 C   0  0  0  0  0  0  0  0  0  0  0  0
    1.4162   16.6386   20.2399 N   0  0  0  0  0  0  0  0  0  0  0  0
    3.2592   20.5375   19.8162 C   0  0  0  0  0  0  0  0  0  0  0  0
    3.8380   21.8102   19.8119 C   0  0  0  0  0  0  0  0  0  0  0  0
    5.1601   21.9630   20.2346 C   0  0  0  0  0  0  0  0  0  0  0  0
    5.8626   20.8367   20.6550 C   0  0  0  0  0  0  0  0  0  0  0  0
    5.3209   19.5915   20.6813 N   0  0  0  0  0  0  0  0  0  0  0  0
    4.0330   19.4743   20.2702 C   0  0  0  0  0  0  0  0  0  0  0  0
    7.2773   21.0032   21.1033 C   0  0  0  0  0  0  0  0  0  0  0  0
    8.0773   21.7949   20.6328 O   0  0  0  0  0  0  0  0  0  0  0  0
    7.6237   20.1778   22.1094 O   0  0  0  0  0  0  0  0  0  0  0  0
    8.5579   20.3904   22.3033 H   0  0  0  0  0  0  0  0  0  0  0  0
  5  6  1  0  0  0
  6  7  1  0  0  0
  7  8  2  0  0  0
  8  1  1  0  0  0
  1  2  1  0  0  0
  2  3  2  0  0  0
  2 17  1  0  0  0
 17 18  2  0  0  0
 18 19  1  0  0  0
 19 20  2  0  0  0
 20 23  1  0  0  0
 23 24  2  0  0  0
 23 25  1  0  0  0
 20 21  1  0  0  0
 21 22  2  0  0  0
  8  9  1  0  0  0
  9 11  1  0  0  0
 11 12  2  0  0  0
 12 13  1  0  0  0
 13 14  2  0  0  0
 14 15  1  0  0  0
 15 16  2  0  0  0
  9 10  2  0  0  0
 10  6  1  0  0  0
 22 17  1  0  0  0
 16 11  1  0  0  0
  1  4  1  0  0  0
 25 26  1  0  0  0
M  END
> <minimizedAffinity>
-9.55608

$$$$
OCNT-2308899


 25 27  0  0  0  0  0  0  0  0999 V2000
    2.4336   14.7832   21.9161 N   0  0  0  0  0  0  0  0  0  0  0  0
    2.2924   13.9843   22.5229 H   0  0  0  0  0  0  0  0  0  0  0  0
    1.5400   15.0773   20.9517 C   0  0  0  0  0  0  0  0  0  0  0  0
    1.4158   16.2503   20.3377 N   0  0  0  0  0  0  0  0  0  0  0  0
    0.3969   16.0791   19.4513 N   0  0  0  0  0  0  0  0  0  0  0  0
   -0.1161   14.7983   19.5190 C   0  0  0  0  0  0  0  0  0  0  0  0
    0.6055   14.1349   20.4802 C   0  0  0  0  0  0  0  0  0  0  0  0
   -0.0594   17.1268   18.5785 C   0  0  0  0  0  0  0  0  0  0  0  0
   -1.3429   17.0996   18.1501 N   0  0  0  0  0  0  0  0  0  0  0  0
   -1.7311   18.0970   17.3360 C   0  0  0  0  0  0  0  0  0  0  0  0
   -0.8997   19.1131   16.9313 C   0  0  0  0  0  0  0  0  0  0  0  0
    0.3856   19.0579   17.4141 C   0  0  0  0  0  0  0  0  0  0  0  0
    0.8339   18.0866   18.2318 N   0  0  0  0  0  0  0  0  0  0  0  0
    3.3690   15.7865   22.4060 C   0  0  0  0  0  0  0  0  0  0  0  0
    4.4714   16.0691   21.3795 C   0  0  0  0  0  0  0  0  0  0  0  0
    5.3381   20.2934   21.0036 C   0  0  0  0  0  0  0  0  0  0  0  0
    5.9730   19.5219   21.9886 C   0  0  0  0  0  0  0  0  0  0  0  0
    5.6943   18.1588   22.1142 C   0  0  0  0  0  0  0  0  0  0  0  0
    4.7676   17.5449   21.2637 C   0  0  0  0  0  0  0  0  0  0  0  0
    4.1284   18.3131   20.2822 C   0  0  0  0  0  0  0  0  0  0  0  0
    4.4072   19.6754   20.1561 C   0  0  0  0  0  0  0  0  0  0  0  0
    5.3783   22.4407   22.0441 F   0  0  0  0  0  0  0  0  0  0  0  0
    5.6230   21.7696   20.8846 C   0  0  0  0  0  0  0  0  0  0  0  0
    6.9203   22.0396   20.5648 F   0  0  0  0  0  0  0  0  0  0  0  0
    4.8718   22.3875   19.9301 F   0  0  0  0  0  0  0  0  0  0  0  0
 22 23  1  0  0  0
 23 24  1  0  0  0
 23 25  1  0  0  0
 23 16  1  0  0  0
 16 17  1  0  0  0
 17 18  2  0  0  0
 18 19  1  0  0  0
 19 15  1  0  0  0
 15 14  1  0  0  0
 14  1  1  0  0  0
  1  3  1  0  0  0
  3  4  2  0  0  0
  4  5  1  0  0  0
  5  8  1  0  0  0
  8  9  2  0  0  0
  9 10  1  0  0  0
 10 11  2  0  0  0
 11 12  1  0  0  0
 12 13  2  0  0  0
  5  6  1  0  0  0
  6  7  2  0  0  0
 19 20  2  0  0  0
 20 21  1  0  0  0
 21 16  2  0  0  0
  7  3  1  0  0  0
 13  8  1  0  0  0
  1  2  1  0  0  0
M  END
> <minimizedAffinity>
-10.58742

$$$$
OCNT-2308900


 28 31  0  0  0  0  0  0  0  0999 V2000
    2.3055   17.4526   20.1032 N   0  0  0  0  0  0  0  0  0  0  0  0
    1.2267   18.1752   19.6262 C   0  0  0  0  0  0  0  0  0  0  0  0
    0.9772   19.3341   19.9370 O   0  0  0  0  0  0  0  0  0  0  0  0
    2.3089   16.4660   19.8741 H   0  0  0  0  0  0  0  0  0  0  0  0
    0.3386   17.4302   18.7472 C   0  0  0  0  0  0  0  0  0  0  0  0
   -0.4405   17.8258   17.6569 C   0  0  0  0  0  0  0  0  0  0  0  0
   -1.1098   16.7388   17.1231 N   0  0  0  0  0  0  0  0  0  0  0  0
   -0.7750   15.7046   17.8566 C   0  0  0  0  0  0  0  0  0  0  0  0
   -1.2257   14.2957   17.6718 C   0  0  0  0  0  0  0  0  0  0  0  0
   -0.2974   13.3138   18.3851 C   0  0  0  0  0  0  0  0  0  0  0  0
   -0.0424   13.7734   19.8187 C   0  0  0  0  0  0  0  0  0  0  0  0
    0.6129   15.1565   19.8521 C   0  0  0  0  0  0  0  0  0  0  0  0
    0.0528   16.0837   18.8822 N   0  0  0  0  0  0  0  0  0  0  0  0
   -0.6452   19.1917   17.0778 C   0  0  0  0  0  0  0  0  0  0  0  0
    0.2974   19.4551   16.1248 F   0  0  0  0  0  0  0  0  0  0  0  0
   -1.8432   19.3239   16.4476 F   0  0  0  0  0  0  0  0  0  0  0  0
    4.1576   19.3212   18.9594 C   0  0  0  0  0  0  0  0  0  0  0  0
    4.2457   18.9265   20.4159 C   0  0  0  0  0  0  0  0  0  0  0  0
    3.3811   17.9065   20.9127 C   0  0  0  0  0  0  0  0  0  0  0  0
    3.5852   17.3970   22.2006 C   0  0  0  0  0  0  0  0  0  0  0  0
    4.6106   17.8763   23.0090 C   0  0  0  0  0  0  0  0  0  0  0  0
    5.4185   18.9129   22.5622 C   0  0  0  0  0  0  0  0  0  0  0  0
    5.2228   19.4798   21.2888 C   0  0  0  0  0  0  0  0  0  0  0  0
    6.0240   20.6159   20.9759 N   0  0  0  0  0  0  0  0  0  0  0  0
    7.3814   20.8098   21.0576 C   0  0  0  0  0  0  0  0  0  0  0  0
    7.6822   22.0201   20.6461 N   0  0  0  0  0  0  0  0  0  0  0  0
    6.4994   22.5817   20.2551 N   0  0  0  0  0  0  0  0  0  0  0  0
    5.4946   21.7338   20.4170 N   0  0  0  0  0  0  0  0  0  0  0  0
 17 18  1  0  0  0
 18 19  2  0  0  0
 19  1  1  0  0  0
  1  2  1  0  0  0
  2  3  2  0  0  0
  2  5  1  0  0  0
  5  6  2  0  0  0
  6 14  1  0  0  0
 14 15  1  0  0  0
 14 16  1  0  0  0
  6  7  1  0  0  0
  7  8  2  0  0  0
  8  9  1  0  0  0
  9 10  1  0  0  0
 10 11  1  0  0  0
 11 12  1  0  0  0
 12 13  1  0  0  0
 19 20  1  0  0  0
 20 21  2  0  0  0
 21 22  1  0  0  0
 22 23  2  0  0  0
 23 24  1  0  0  0
 24 25  1  0  0  0
 25 26  2  0  0  0
 26 27  1  0  0  0
 27 28  2  0  0  0
 23 18  1  0  0  0
 28 24  1  0  0  0
 13  5  1  0  0  0
 13  8  1  0  0  0
  1  4  1  0  0  0
M  END
> <minimizedAffinity>
-7.17179

$$$$
OCNT-2308903


 23 25  0  0  0  0  0  0  0  0999 V2000
    4.0942   16.5517   22.0988 C   0  0  0  0  0  0  0  0  0  0  0  0
    1.2990   16.8791   19.8882 C   0  0  0  0  0  0  0  0  0  0  0  0
    2.4260   17.4542   20.4219 C   0  0  0  0  0  0  0  0  0  0  0  0
    2.9131   16.4939   21.2597 N   0  0  0  0  0  0  0  0  0  0  0  0
    2.1380   15.3971   21.2581 N   0  0  0  0  0  0  0  0  0  0  0  0
    1.1393   15.6240   20.4149 N   0  0  0  0  0  0  0  0  0  0  0  0
    0.7958   19.9600   18.9707 C   0  0  0  0  0  0  0  0  0  0  0  0
    0.1222   18.7855   18.4824 N   0  0  0  0  0  0  0  0  0  0  0  0
   -0.8583   18.7929   17.5277 C   0  0  0  0  0  0  0  0  0  0  0  0
   -1.2941   17.5814   17.2690 N   0  0  0  0  0  0  0  0  0  0  0  0
   -0.5646   16.7591   18.0905 C   0  0  0  0  0  0  0  0  0  0  0  0
    0.3233   17.4838   18.8567 C   0  0  0  0  0  0  0  0  0  0  0  0
    4.4060   17.9899   22.5237 C   0  0  0  0  0  0  0  0  0  0  0  0
    4.3449   18.0653   23.9582 O   0  0  0  0  0  0  0  0  0  0  0  0
    4.3386   19.0100   24.1987 H   0  0  0  0  0  0  0  0  0  0  0  0
    5.8163   18.4269   22.0943 C   0  0  0  0  0  0  0  0  0  0  0  0
    5.8771   19.7849   21.4432 C   0  0  0  0  0  0  0  0  0  0  0  0
    7.0915   20.4845   21.3663 C   0  0  0  0  0  0  0  0  0  0  0  0
    7.1522   21.7427   20.7599 C   0  0  0  0  0  0  0  0  0  0  0  0
    5.9990   22.3164   20.2293 C   0  0  0  0  0  0  0  0  0  0  0  0
    4.7951   21.6288   20.3112 C   0  0  0  0  0  0  0  0  0  0  0  0
    3.6837   22.1825   19.8088 F   0  0  0  0  0  0  0  0  0  0  0  0
    4.7229   20.3746   20.9104 C   0  0  0  0  0  0  0  0  0  0  0  0
  7  8  1  0  0  0
  8  9  1  0  0  0
  9 10  2  0  0  0
 10 11  1  0  0  0
 11 12  2  0  0  0
 12  2  1  0  0  0
  2  3  2  0  0  0
  3  4  1  0  0  0
  4  1  1  0  0  0
  1 13  1  0  0  0
 13 14  1  0  0  0
 13 16  1  0  0  0
 16 17  1  0  0  0
 17 18  2  0  0  0
 18 19  1  0  0  0
 19 20  2  0  0  0
 20 21  1  0  0  0
 21 22  1  0  0  0
 21 23  2  0  0  0
  4  5  1  0  0  0
  5  6  2  0  0  0
 12  8  1  0  0  0
  6  2  1  0  0  0
 23 17  1  0  0  0
 14 15  1  0  0  0
M  END
> <minimizedAffinity>
-9.87906

$$$$
OCNT-2308905


 24 27  0  0  0  0  0  0  0  0999 V2000
    1.3302   16.4827   20.1378 C   0  0  0  0  0  0  0  0  0  0  0  0
    2.4909   17.1189   20.5308 C   0  0  0  0  0  0  0  0  0  0  0  0
    3.0712   16.2470   21.3956 N   0  0  0  0  0  0  0  0  0  0  0  0
    2.3286   15.1404   21.5546 N   0  0  0  0  0  0  0  0  0  0  0  0
    1.2597   15.2702   20.7797 N   0  0  0  0  0  0  0  0  0  0  0  0
   -2.3299   18.9469   16.5021 C   0  0  0  0  0  0  0  0  0  0  0  0
   -1.4176   18.2408   17.4531 C   0  0  0  0  0  0  0  0  0  0  0  0
   -0.5513   18.9486   18.2698 C   0  0  0  0  0  0  0  0  0  0  0  0
    0.3171   18.3745   19.1291 N   0  0  0  0  0  0  0  0  0  0  0  0
    0.3542   17.0123   19.1902 C   0  0  0  0  0  0  0  0  0  0  0  0
   -0.4742   16.2059   18.3983 C   0  0  0  0  0  0  0  0  0  0  0  0
   -0.4571   14.7050   18.4354 C   0  0  0  0  0  0  0  0  0  0  0  0
   -1.3624   16.8489   17.5197 C   0  0  0  0  0  0  0  0  0  0  0  0
    4.3191   16.3956   22.1010 C   0  0  0  0  0  0  0  0  0  0  0  0
    5.1493   17.5776   21.6075 C   0  0  0  0  0  0  0  0  0  0  0  0
    6.0425   18.1646   22.7014 C   0  0  0  0  0  0  0  0  0  0  0  0
    6.8411   19.2363   22.1807 O   0  0  0  0  0  0  0  0  0  0  0  0
    6.0996   20.0955   21.4139 C   0  0  0  0  0  0  0  0  0  0  0  0
    6.6758   21.3297   21.1182 C   0  0  0  0  0  0  0  0  0  0  0  0
    5.9692   22.2632   20.3583 C   0  0  0  0  0  0  0  0  0  0  0  0
    4.6885   21.9598   19.8925 C   0  0  0  0  0  0  0  0  0  0  0  0
    4.1171   20.7184   20.1775 C   0  0  0  0  0  0  0  0  0  0  0  0
    4.8292   19.7818   20.9248 C   0  0  0  0  0  0  0  0  0  0  0  0
    4.2164   18.5768   21.1480 O   0  0  0  0  0  0  0  0  0  0  0  0
  6  7  1  0  0  0
  7  8  1  0  0  0
  8  9  2  0  0  0
  9 10  1  0  0  0
 10  1  1  0  0  0
  1  2  2  0  0  0
  2  3  1  0  0  0
  3 14  1  0  0  0
 14 15  1  0  0  0
 15 16  1  0  0  0
 16 17  1  0  0  0
 17 18  1  0  0  0
 18 19  2  0  0  0
 19 20  1  0  0  0
 20 21  2  0  0  0
 21 22  1  0  0  0
 22 23  2  0  0  0
 23 24  1  0  0  0
  3  4  1  0  0  0
  4  5  2  0  0  0
 10 11  2  0  0  0
 11 12  1  0  0  0
 11 13  1  0  0  0
 13  7  2  0  0  0
  5  1  1  0  0  0
 24 15  1  0  0  0
 23 18  1  0  0  0
M  END
> <minimizedAffinity>
-10.80759

$$$$
OCNT-2308908


 27 30  0  0  0  0  0  0  0  0999 V2000
    1.7497   14.9195   21.1479 C   0  0  0  0  0  0  0  0  0  0  0  0
    2.7304   14.2146   21.7324 N   0  0  0  0  0  0  0  0  0  0  0  0
    3.6379   15.1968   22.1307 O   0  0  0  0  0  0  0  0  0  0  0  0
    3.1182   16.3899   21.7240 C   0  0  0  0  0  0  0  0  0  0  0  0
    1.9722   16.2766   21.0931 N   0  0  0  0  0  0  0  0  0  0  0  0
    0.5447   14.2800   20.5639 C   0  0  0  0  0  0  0  0  0  0  0  0
   -1.4081   17.9294   16.4455 C   0  0  0  0  0  0  0  0  0  0  0  0
   -0.9049   17.0113   17.5254 C   0  0  0  0  0  0  0  0  0  0  0  0
   -0.8678   15.6293   17.2896 C   0  0  0  0  0  0  0  0  0  0  0  0
   -0.4025   14.7485   18.2669 C   0  0  0  0  0  0  0  0  0  0  0  0
    0.0349   15.2295   19.5062 C   0  0  0  0  0  0  0  0  0  0  0  0
    0.0034   16.6128   19.7420 C   0  0  0  0  0  0  0  0  0  0  0  0
   -0.4617   17.5100   18.7659 C   0  0  0  0  0  0  0  0  0  0  0  0
   -0.4683   18.9841   19.0663 C   0  0  0  0  0  0  0  0  0  0  0  0
    3.8910   17.6102   22.0561 C   0  0  0  0  0  0  0  0  0  0  0  0
    4.8403   18.0135   20.9094 C   0  0  0  0  0  0  0  0  0  0  0  0
    4.1117   18.1875   19.5720 C   0  0  0  0  0  0  0  0  0  0  0  0
    3.2928   19.4578   19.5217 C   0  0  0  0  0  0  0  0  0  0  0  0
    2.2350   19.5381   18.9030 O   0  0  0  0  0  0  0  0  0  0  0  0
    3.8401   20.5566   20.1267 N   0  0  0  0  0  0  0  0  0  0  0  0
    5.0059   20.5275   20.8955 C   0  0  0  0  0  0  0  0  0  0  0  0
    5.5918   21.7245   21.3041 C   0  0  0  0  0  0  0  0  0  0  0  0
    6.7604   21.6965   22.0660 C   0  0  0  0  0  0  0  0  0  0  0  0
    7.3323   20.4760   22.4255 C   0  0  0  0  0  0  0  0  0  0  0  0
    6.7325   19.2786   22.0336 C   0  0  0  0  0  0  0  0  0  0  0  0
    5.5602   19.2973   21.2670 C   0  0  0  0  0  0  0  0  0  0  0  0
    3.3569   21.4316   19.9673 H   0  0  0  0  0  0  0  0  0  0  0  0
  7  8  1  0  0  0
  8  9  1  0  0  0
  9 10  2  0  0  0
 10 11  1  0  0  0
 11  6  1  0  0  0
  6  1  1  0  0  0
  1  2  2  0  0  0
  2  3  1  0  0  0
  3  4  1  0  0  0
  4 15  1  0  0  0
 15 16  1  0  0  0
 16 17  1  0  0  0
 17 18  1  0  0  0
 18 19  2  0  0  0
 18 20  1  0  0  0
 20 21  1  0  0  0
 21 22  2  0  0  0
 22 23  1  0  0  0
 23 24  2  0  0  0
 24 25  1  0  0  0
 25 26  2  0  0  0
  4  5  2  0  0  0
 11 12  2  0  0  0
 12 13  1  0  0  0
 13 14  1  0  0  0
 13  8  2  0  0  0
  5  1  1  0  0  0
 26 16  1  0  0  0
 26 21  1  0  0  0
 20 27  1  0  0  0
M  END
> <minimizedAffinity>
-11.80898

$$$$
OCNT-2308918


 28 30  0  0  0  0  0  0  0  0999 V2000
    3.3854   19.6780   19.8758 C   0  0  0  0  0  0  0  0  0  0  0  0
    4.0477   18.8929   20.8138 C   0  0  0  0  0  0  0  0  0  0  0  0
    5.1938   19.6531   21.2203 C   0  0  0  0  0  0  0  0  0  0  0  0
    6.2913   19.5080   22.0955 C   0  0  0  0  0  0  0  0  0  0  0  0
    7.2401   20.5377   22.2086 C   0  0  0  0  0  0  0  0  0  0  0  0
    7.1200   21.7091   21.4655 C   0  0  0  0  0  0  0  0  0  0  0  0
    6.0511   21.8864   20.5867 C   0  0  0  0  0  0  0  0  0  0  0  0
    5.1266   20.8446   20.4980 C   0  0  0  0  0  0  0  0  0  0  0  0
    4.0385   20.8600   19.6877 O   0  0  0  0  0  0  0  0  0  0  0  0
    1.2529   20.4283   19.1365 N   0  0  0  0  0  0  0  0  0  0  0  0
    2.1759   19.4215   19.1287 C   0  0  0  0  0  0  0  0  0  0  0  0
    1.9596   18.3783   18.5156 O   0  0  0  0  0  0  0  0  0  0  0  0
    1.4271   21.2857   19.6452 H   0  0  0  0  0  0  0  0  0  0  0  0
    0.3874   20.3045   18.6321 H   0  0  0  0  0  0  0  0  0  0  0  0
    3.5476   17.6396   21.1619 N   0  0  0  0  0  0  0  0  0  0  0  0
    4.2474   16.4835   21.4398 C   0  0  0  0  0  0  0  0  0  0  0  0
    5.4630   16.3461   21.4483 O   0  0  0  0  0  0  0  0  0  0  0  0
    2.5305   17.5953   21.2341 H   0  0  0  0  0  0  0  0  0  0  0  0
    3.3025   15.3408   21.7785 C   0  0  0  0  0  0  0  0  0  0  0  0
    1.8677   15.6340   21.3495 C   0  0  0  0  0  0  0  0  0  0  0  0
    1.1516   14.3710   20.9497 C   0  0  0  0  0  0  0  0  0  0  0  0
    0.2358   14.2330   19.9774 C   0  0  0  0  0  0  0  0  0  0  0  0
   -0.2647   15.3238   19.1410 C   0  0  0  0  0  0  0  0  0  0  0  0
   -0.5068   16.5878   19.6897 C   0  0  0  0  0  0  0  0  0  0  0  0
   -0.9825   17.6244   18.8843 C   0  0  0  0  0  0  0  0  0  0  0  0
   -1.2189   17.4017   17.5281 C   0  0  0  0  0  0  0  0  0  0  0  0
   -0.9806   16.1434   16.9763 C   0  0  0  0  0  0  0  0  0  0  0  0
   -0.5057   15.1053   17.7808 C   0  0  0  0  0  0  0  0  0  0  0  0
 10 11  1  0  0  0
 11 12  2  0  0  0
 11  1  1  0  0  0
  1  2  2  0  0  0
  2 15  1  0  0  0
 15 16  1  0  0  0
 16 17  2  0  0  0
 16 19  1  0  0  0
 19 20  1  0  0  0
 20 21  1  0  0  0
 21 22  2  0  0  0
 22 23  1  0  0  0
 23 24  2  0  0  0
 24 25  1  0  0  0
 25 26  2  0  0  0
 26 27  1  0  0  0
 27 28  2  0  0  0
  2  3  1  0  0  0
  3  4  2  0  0  0
  4  5  1  0  0  0
  5  6  2  0  0  0
  6  7  1  0  0  0
  7  8  2  0  0  0
  8  9  1  0  0  0
  9  1  1  0  0  0
 28 23  1  0  0  0
  8  3  1  0  0  0
 10 13  1  0  0  0
 10 14  1  0  0  0
 15 18  1  0  0  0
M  END
> <minimizedAffinity>
-11.12139

$$$$
OCNT-2308924


 24 26  0  0  0  0  0  0  0  0999 V2000
    3.1856   16.5791   21.3116 C   0  0  0  0  0  0  0  0  0  0  0  0
    3.3955   15.3708   21.9768 C   0  0  0  0  0  0  0  0  0  0  0  0
    2.4600   14.3486   21.8536 C   0  0  0  0  0  0  0  0  0  0  0  0
    1.3253   14.5268   21.0539 C   0  0  0  0  0  0  0  0  0  0  0  0
    1.1111   15.7140   20.3428 C   0  0  0  0  0  0  0  0  0  0  0  0
    2.0576   16.7434   20.4925 C   0  0  0  0  0  0  0  0  0  0  0  0
    3.9124   18.8458   20.8154 N   0  0  0  0  0  0  0  0  0  0  0  0
    4.1905   17.6616   21.4760 C   0  0  0  0  0  0  0  0  0  0  0  0
    5.1700   17.4785   22.1867 O   0  0  0  0  0  0  0  0  0  0  0  0
    2.9880   18.9154   20.4033 H   0  0  0  0  0  0  0  0  0  0  0  0
    4.1445   21.1063   19.9108 C   0  0  0  0  0  0  0  0  0  0  0  0
    4.7596   20.0691   20.8506 C   0  0  0  0  0  0  0  0  0  0  0  0
    5.0945   20.6140   22.2612 C   0  0  0  0  0  0  0  0  0  0  0  0
    6.5414   20.8524   21.7731 C   0  0  0  0  0  0  0  0  0  0  0  0
    6.8031   22.1176   21.3656 F   0  0  0  0  0  0  0  0  0  0  0  0
    7.5216   20.5199   22.6412 F   0  0  0  0  0  0  0  0  0  0  0  0
    6.2765   19.8448   20.6314 C   0  0  0  0  0  0  0  0  0  0  0  0
   -0.0136   15.9559   19.5312 N   0  0  0  0  0  0  0  0  0  0  0  0
   -0.8288   15.4059   19.7682 H   0  0  0  0  0  0  0  0  0  0  0  0
   -0.1993   16.9015   18.5792 C   0  0  0  0  0  0  0  0  0  0  0  0
   -0.4059   16.7235   17.2926 N   0  0  0  0  0  0  0  0  0  0  0  0
   -0.5594   17.9330   16.6467 C   0  0  0  0  0  0  0  0  0  0  0  0
   -0.4752   19.0471   17.4482 C   0  0  0  0  0  0  0  0  0  0  0  0
   -0.1961   18.5669   19.0658 S   0  0  0  0  0  0  0  0  0  0  0  0
 11 12  1  0  0  0
 12  7  1  0  0  0
  7  8  1  0  0  0
  8  9  2  0  0  0
  8  1  1  0  0  0
  1  2  1  0  0  0
  2  3  2  0  0  0
  3  4  1  0  0  0
  4  5  2  0  0  0
  5 18  1  0  0  0
 18 20  1  0  0  0
 20 21  2  0  0  0
 21 22  1  0  0  0
 22 23  2  0  0  0
 23 24  1  0  0  0
  5  6  1  0  0  0
 12 13  1  0  0  0
 13 14  1  0  0  0
 14 15  1  0  0  0
 14 16  1  0  0  0
 14 17  1  0  0  0
 17 12  1  0  0  0
  6  1  2  0  0  0
 24 20  1  0  0  0
  7 10  1  0  0  0
 18 19  1  0  0  0
M  END
> <minimizedAffinity>
-10.00312

$$$$
OCNT-2308925


 26 29  0  0  0  0  0  0  0  0999 V2000
   -0.0874   18.3267   19.0282 C   0  0  0  0  0  0  0  0  0  0  0  0
   -0.1693   16.8062   18.9943 C   0  0  0  0  0  0  0  0  0  0  0  0
   -0.0246   16.0807   20.1933 C   0  0  0  0  0  0  0  0  0  0  0  0
   -0.0747   14.6850   20.2120 C   0  0  0  0  0  0  0  0  0  0  0  0
   -0.2809   13.9981   19.0194 C   0  0  0  0  0  0  0  0  0  0  0  0
   -0.4358   14.7028   17.8220 C   0  0  0  0  0  0  0  0  0  0  0  0
   -0.3741   16.1037   17.7943 C   0  0  0  0  0  0  0  0  0  0  0  0
   -0.6043   16.8169   16.4864 C   0  0  0  0  0  0  0  0  0  0  0  0
   -0.0748   18.2485   16.4804 C   0  0  0  0  0  0  0  0  0  0  0  0
   -0.5343   19.0161   17.7181 C   0  0  0  0  0  0  0  0  0  0  0  0
   -1.9643   19.1415   17.6887 O   0  0  0  0  0  0  0  0  0  0  0  0
   -2.1977   19.6837   16.9147 H   0  0  0  0  0  0  0  0  0  0  0  0
    3.2482   19.0407   20.1860 C   0  0  0  0  0  0  0  0  0  0  0  0
    2.1313   18.2490   20.3006 C   0  0  0  0  0  0  0  0  0  0  0  0
    1.2568   18.7787   19.3975 N   0  0  0  0  0  0  0  0  0  0  0  0
    1.8108   19.8261   18.7481 N   0  0  0  0  0  0  0  0  0  0  0  0
    3.0328   19.9980   19.2353 N   0  0  0  0  0  0  0  0  0  0  0  0
    5.4445   19.8510   21.3568 N   0  0  0  0  0  0  0  0  0  0  0  0
    6.4495   19.2723   22.0879 C   0  0  0  0  0  0  0  0  0  0  0  0
    6.1205   17.9412   22.1578 C   0  0  0  0  0  0  0  0  0  0  0  0
    4.9508   17.6955   21.4903 N   0  0  0  0  0  0  0  0  0  0  0  0
    4.5531   18.8624   21.0133 C   0  0  0  0  0  0  0  0  0  0  0  0
    6.7342   21.8330   20.6470 C   0  0  0  0  0  0  0  0  0  0  0  0
    5.3776   21.2578   21.0156 C   0  0  0  0  0  0  0  0  0  0  0  0
    0.0867   14.1240   21.4484 O   0  0  0  0  0  0  0  0  0  0  0  0
    1.2739   14.4580   22.1558 C   0  0  0  0  0  0  0  0  0  0  0  0
 23 24  1  0  0  0
 24 18  1  0  0  0
 18 19  1  0  0  0
 19 20  2  0  0  0
 20 21  1  0  0  0
 21 22  2  0  0  0
 22 13  1  0  0  0
 13 14  2  0  0  0
 14 15  1  0  0  0
 15  1  1  0  0  0
  1  2  1  0  0  0
  2  3  1  0  0  0
  3  4  2  0  0  0
  4 25  1  0  0  0
 25 26  1  0  0  0
  4  5  1  0  0  0
  5  6  2  0  0  0
  6  7  1  0  0  0
  7  8  1  0  0  0
  8  9  1  0  0  0
  9 10  1  0  0  0
 10 11  1  0  0  0
 15 16  1  0  0  0
 16 17  2  0  0  0
 22 18  1  0  0  0
 17 13  1  0  0  0
 10  1  1  0  0  0
  7  2  2  0  0  0
 11 12  1  0  0  0
M  END
> <minimizedAffinity>
-9.66828

$$$$
OCNT-2308929


 22 24  0  0  0  0  0  0  0  0999 V2000
    3.3126   18.9826   20.0295 N   0  0  0  0  0  0  0  0  0  0  0  0
    2.0040   18.7623   19.5964 C   0  0  0  0  0  0  0  0  0  0  0  0
    1.7301   17.4604   19.3485 N   0  0  0  0  0  0  0  0  0  0  0  0
    0.4913   17.1457   18.9440 C   0  0  0  0  0  0  0  0  0  0  0  0
   -0.5116   18.0058   18.7426 N   0  0  0  0  0  0  0  0  0  0  0  0
   -0.2081   19.2968   18.9761 C   0  0  0  0  0  0  0  0  0  0  0  0
    1.0323   19.7414   19.3965 C   0  0  0  0  0  0  0  0  0  0  0  0
    1.2825   21.6059   19.5896 Br  0  0  0  0  0  0  0  0  0  0  0  0
    4.0660   17.7164   20.1303 C   0  0  0  0  0  0  0  0  0  0  0  0
    4.4443   17.3029   21.5724 C   0  0  0  0  0  0  0  0  0  0  0  0
    4.0864   18.3733   22.6593 C   0  0  0  0  0  0  0  0  0  0  0  0
    5.4480   18.0784   23.3120 C   0  0  0  0  0  0  0  0  0  0  0  0
    5.9366   17.6149   21.9287 C   0  0  0  0  0  0  0  0  0  0  0  0
    4.0743   15.9117   21.8182 O   0  0  0  0  0  0  0  0  0  0  0  0
    2.4311   14.1086   21.7067 C   0  0  0  0  0  0  0  0  0  0  0  0
    2.7227   15.5487   22.0778 C   0  0  0  0  0  0  0  0  0  0  0  0
    4.0245   20.1585   19.4997 C   0  0  0  0  0  0  0  0  0  0  0  0
    5.1321   20.7261   20.3406 C   0  0  0  0  0  0  0  0  0  0  0  0
    6.5018   20.6825   20.1601 C   0  0  0  0  0  0  0  0  0  0  0  0
    7.1615   21.3668   21.2179 C   0  0  0  0  0  0  0  0  0  0  0  0
    6.3910   21.9212   22.1497 N   0  0  0  0  0  0  0  0  0  0  0  0
    4.8057   21.6199   21.7633 S   0  0  0  0  0  0  0  0  0  0  0  0
 15 16  1  0  0  0
 16 14  1  0  0  0
 14 10  1  0  0  0
 10  9  1  0  0  0
  9  1  1  0  0  0
  1 17  1  0  0  0
 17 18  1  0  0  0
 18 19  2  0  0  0
 19 20  1  0  0  0
 20 21  2  0  0  0
 21 22  1  0  0  0
  1  2  1  0  0  0
  2  3  2  0  0  0
  3  4  1  0  0  0
  4  5  2  0  0  0
  5  6  1  0  0  0
  6  7  2  0  0  0
  7  8  1  0  0  0
 10 11  1  0  0  0
 11 12  1  0  0  0
 12 13  1  0  0  0
 13 10  1  0  0  0
 22 18  1  0  0  0
  7  2  1  0  0  0
M  END
> <minimizedAffinity>
-5.44738

$$$$
OCNT-2308945


 25 27  0  0  0  0  0  0  0  0999 V2000
    6.8882   21.1491   21.1426 C   0  0  0  0  0  0  0  0  0  0  0  0
    5.9775   21.5341   20.1402 C   0  0  0  0  0  0  0  0  0  0  0  0
    4.8265   20.7808   19.8793 C   0  0  0  0  0  0  0  0  0  0  0  0
    4.5895   19.6432   20.6315 C   0  0  0  0  0  0  0  0  0  0  0  0
    5.4859   19.2609   21.6299 C   0  0  0  0  0  0  0  0  0  0  0  0
    6.6320   19.9979   21.8987 C   0  0  0  0  0  0  0  0  0  0  0  0
    5.0427   18.0131   22.3172 C   0  0  0  0  0  0  0  0  0  0  0  0
    3.7303   17.6977   21.5927 C   0  0  0  0  0  0  0  0  0  0  0  0
    3.5134   18.7316   20.5632 N   0  0  0  0  0  0  0  0  0  0  0  0
    2.4419   18.8174   19.6753 C   0  0  0  0  0  0  0  0  0  0  0  0
    2.3246   19.7097   18.8381 O   0  0  0  0  0  0  0  0  0  0  0  0
    1.5142   17.7965   19.8246 N   0  0  0  0  0  0  0  0  0  0  0  0
    1.6810   17.1041   20.5386 H   0  0  0  0  0  0  0  0  0  0  0  0
    0.3539   17.6320   19.0801 C   0  0  0  0  0  0  0  0  0  0  0  0
   -0.3227   18.5724   18.3418 C   0  0  0  0  0  0  0  0  0  0  0  0
   -1.3954   17.9401   17.7941 N   0  0  0  0  0  0  0  0  0  0  0  0
   -2.3989   18.5228   16.9362 C   0  0  0  0  0  0  0  0  0  0  0  0
   -1.4766   16.6384   18.1207 N   0  0  0  0  0  0  0  0  0  0  0  0
   -0.4038   16.4310   18.9137 C   0  0  0  0  0  0  0  0  0  0  0  0
   -0.1013   15.0878   19.5097 C   0  0  0  0  0  0  0  0  0  0  0  0
    1.2469   14.8544   19.5576 F   0  0  0  0  0  0  0  0  0  0  0  0
   -0.6324   14.0601   18.7954 F   0  0  0  0  0  0  0  0  0  0  0  0
   -0.5481   14.9611   20.7874 F   0  0  0  0  0  0  0  0  0  0  0  0
    9.0375   22.0481   20.2133 C   0  0  0  0  0  0  0  0  0  0  0  0
    8.1119   21.9862   21.4186 C   0  0  0  0  0  0  0  0  0  0  0  0
 24 25  1  0  0  0
 25  1  1  0  0  0
  1  2  1  0  0  0
  2  3  2  0  0  0
  3  4  1  0  0  0
  4  5  2  0  0  0
  5  6  1  0  0  0
  5  7  1  0  0  0
  7  8  1  0  0  0
  8  9  1  0  0  0
  9 10  1  0  0  0
 10 11  2  0  0  0
 10 12  1  0  0  0
 12 14  1  0  0  0
 14 15  2  0  0  0
 15 16  1  0  0  0
 16 17  1  0  0  0
 16 18  1  0  0  0
 18 19  2  0  0  0
 19 20  1  0  0  0
 20 21  1  0  0  0
 20 22  1  0  0  0
 20 23  1  0  0  0
  6  1  2  0  0  0
 19 14  1  0  0  0
  9  4  1  0  0  0
 12 13  1  0  0  0
M  END
> <minimizedAffinity>
-9.29338

$$$$
OCNT-2308952


 22 25  0  0  0  0  0  0  0  0999 V2000
    2.8874   17.0945   21.6438 N   0  0  0  0  0  0  0  0  0  0  0  0
    3.1365   17.3015   22.6143 H   0  0  0  0  0  0  0  0  0  0  0  0
    6.7079   21.4798   22.6943 Br  0  0  0  0  0  0  0  0  0  0  0  0
    5.5122   20.7171   21.4466 C   0  0  0  0  0  0  0  0  0  0  0  0
    4.9309   21.5294   20.4700 C   0  0  0  0  0  0  0  0  0  0  0  0
    4.0374   20.9878   19.5338 C   0  0  0  0  0  0  0  0  0  0  0  0
    3.7063   19.6318   19.5704 C   0  0  0  0  0  0  0  0  0  0  0  0
    4.2789   18.8313   20.5496 C   0  0  0  0  0  0  0  0  0  0  0  0
    5.1958   19.3679   21.4702 C   0  0  0  0  0  0  0  0  0  0  0  0
    5.6803   18.2981   22.4013 C   0  0  0  0  0  0  0  0  0  0  0  0
    5.3413   17.0392   21.5916 C   0  0  0  0  0  0  0  0  0  0  0  0
    4.0533   17.3597   20.7980 C   0  0  0  0  0  0  0  0  0  0  0  0
    2.4328   15.6995   21.6260 C   0  0  0  0  0  0  0  0  0  0  0  0
    1.3676   15.4778   20.5978 C   0  0  0  0  0  0  0  0  0  0  0  0
    0.8391   14.2510   20.4116 N   0  0  0  0  0  0  0  0  0  0  0  0
   -0.1089   14.3892   19.4005 O   0  0  0  0  0  0  0  0  0  0  0  0
   -0.1201   15.6765   19.0095 C   0  0  0  0  0  0  0  0  0  0  0  0
    0.7824   16.4149   19.7219 C   0  0  0  0  0  0  0  0  0  0  0  0
    0.9574   17.8573   19.4596 C   0  0  0  0  0  0  0  0  0  0  0  0
   -0.1349   18.3897   18.6678 O   0  0  0  0  0  0  0  0  0  0  0  0
   -0.4685   17.5587   17.5314 C   0  0  0  0  0  0  0  0  0  0  0  0
   -1.0228   16.1820   17.9632 C   0  0  0  0  0  0  0  0  0  0  0  0
  3  4  1  0  0  0
  4  5  1  0  0  0
  5  6  2  0  0  0
  6  7  1  0  0  0
  7  8  2  0  0  0
  8  9  1  0  0  0
  9 10  1  0  0  0
 10 11  1  0  0  0
 11 12  1  0  0  0
 12  1  1  0  0  0
  1 13  1  0  0  0
 13 14  1  0  0  0
 14 15  2  0  0  0
 15 16  1  0  0  0
 16 17  1  0  0  0
 17 18  2  0  0  0
 18 19  1  0  0  0
 19 20  1  0  0  0
 20 21  1  0  0  0
 21 22  1  0  0  0
  9  4  2  0  0  0
 18 14  1  0  0  0
 12  8  1  0  0  0
 22 17  1  0  0  0
  1  2  1  0  0  0
M  END
> <minimizedAffinity>
-10.54866

$$$$
OCNT-2308958


 25 27  0  0  0  0  0  0  0  0999 V2000
    3.6989   18.4926   20.9946 N   0  0  0  0  0  0  0  0  0  0  0  0
    2.8415   18.3451   19.9285 C   0  0  0  0  0  0  0  0  0  0  0  0
    2.8064   19.0989   18.9608 O   0  0  0  0  0  0  0  0  0  0  0  0
    1.9595   17.2627   20.0652 N   0  0  0  0  0  0  0  0  0  0  0  0
    2.3751   16.0115   20.7030 C   0  0  0  0  0  0  0  0  0  0  0  0
    1.1783   15.2193   21.2117 C   0  0  0  0  0  0  0  0  0  0  0  0
    0.1485   14.9897   20.1058 C   0  0  0  0  0  0  0  0  0  0  0  0
   -0.2750   16.3234   19.4749 C   0  0  0  0  0  0  0  0  0  0  0  0
    0.9625   17.1067   19.0015 C   0  0  0  0  0  0  0  0  0  0  0  0
    3.3606   18.1146   21.8694 H   0  0  0  0  0  0  0  0  0  0  0  0
    8.2346   21.9805   21.5701 C   0  0  0  0  0  0  0  0  0  0  0  0
    7.0340   21.0928   21.3983 C   0  0  0  0  0  0  0  0  0  0  0  0
    6.9618   19.8830   22.1033 C   0  0  0  0  0  0  0  0  0  0  0  0
    5.8542   19.0417   21.9584 C   0  0  0  0  0  0  0  0  0  0  0  0
    5.8359   17.5589   22.8540 Cl  0  0  0  0  0  0  0  0  0  0  0  0
    4.7869   19.3895   21.1129 C   0  0  0  0  0  0  0  0  0  0  0  0
    4.8646   20.5891   20.4005 C   0  0  0  0  0  0  0  0  0  0  0  0
    5.9740   21.4328   20.5436 C   0  0  0  0  0  0  0  0  0  0  0  0
    5.9984   22.8984   19.6267 Cl  0  0  0  0  0  0  0  0  0  0  0  0
   -1.3404   16.2505   18.3487 C   0  0  0  0  0  0  0  0  0  0  0  0
   -0.8479   15.7382   16.9875 C   0  0  0  0  0  0  0  0  0  0  0  0
   -0.3629   16.8352   16.0473 C   0  0  0  0  0  0  0  0  0  0  0  0
   -1.3534   17.9873   16.0126 C   0  0  0  0  0  0  0  0  0  0  0  0
   -1.6474   18.4712   17.4209 C   0  0  0  0  0  0  0  0  0  0  0  0
   -2.1497   17.4232   18.2382 O   0  0  0  0  0  0  0  0  0  0  0  0
 11 12  1  0  0  0
 12 13  2  0  0  0
 13 14  1  0  0  0
 14 15  1  0  0  0
 14 16  2  0  0  0
 16  1  1  0  0  0
  1  2  1  0  0  0
  2  3  2  0  0  0
  2  4  1  0  0  0
  4  5  1  0  0  0
  5  6  1  0  0  0
  6  7  1  0  0  0
  7  8  1  0  0  0
  8 20  1  0  0  0
 20 21  1  0  0  0
 21 22  1  0  0  0
 22 23  1  0  0  0
 23 24  1  0  0  0
 24 25  1  0  0  0
  8  9  1  0  0  0
 16 17  1  0  0  0
 17 18  2  0  0  0
 18 19  1  0  0  0
 18 12  1  0  0  0
  9  4  1  0  0  0
 25 20  1  0  0  0
  1 10  1  0  0  0
M  END
> <minimizedAffinity>
-5.11251

$$$$
OCNT-2308961


 23 26  0  0  0  0  0  0  0  0999 V2000
    0.1380   17.7178   18.4180 C   0  0  0  0  0  0  0  0  0  0  0  0
    0.3487   18.2618   19.8505 C   0  0  0  0  0  0  0  0  0  0  0  0
    1.0063   19.6379   19.8254 C   0  0  0  0  0  0  0  0  0  0  0  0
    2.2911   19.6029   19.1132 N   0  0  0  0  0  0  0  0  0  0  0  0
    2.6111   18.3628   18.4020 C   0  0  0  0  0  0  0  0  0  0  0  0
    1.4081   17.9529   17.5583 C   0  0  0  0  0  0  0  0  0  0  0  0
    3.3703   20.1886   19.7880 C   0  0  0  0  0  0  0  0  0  0  0  0
    3.6055   21.5170   19.6337 N   0  0  0  0  0  0  0  0  0  0  0  0
    4.6385   22.0861   20.2691 C   0  0  0  0  0  0  0  0  0  0  0  0
    5.5084   21.5008   21.0919 N   0  0  0  0  0  0  0  0  0  0  0  0
    5.2682   20.1836   21.2929 C   0  0  0  0  0  0  0  0  0  0  0  0
    4.2241   19.4974   20.6747 C   0  0  0  0  0  0  0  0  0  0  0  0
    4.1993   17.8510   21.2041 S   0  0  0  0  0  0  0  0  0  0  0  0
    5.5732   18.0576   22.1933 C   0  0  0  0  0  0  0  0  0  0  0  0
    6.0427   19.3484   22.1520 C   0  0  0  0  0  0  0  0  0  0  0  0
   -0.1856   16.2277   18.4487 C   0  0  0  0  0  0  0  0  0  0  0  0
   -0.9403   15.5929   17.5654 N   0  0  0  0  0  0  0  0  0  0  0  0
   -0.9841   14.2847   17.9598 C   0  0  0  0  0  0  0  0  0  0  0  0
   -0.2478   14.1011   19.1016 C   0  0  0  0  0  0  0  0  0  0  0  0
    0.2562   15.3366   19.4090 N   0  0  0  0  0  0  0  0  0  0  0  0
    1.1088   15.6071   20.5422 C   0  0  0  0  0  0  0  0  0  0  0  0
   -0.6569   18.8790   16.4188 C   0  0  0  0  0  0  0  0  0  0  0  0
   -0.9416   18.3885   17.7232 O   0  0  0  0  0  0  0  0  0  0  0  0
 22 23  1  0  0  0
 23  1  1  0  0  0
  1 16  1  0  0  0
 16 17  2  0  0  0
 17 18  1  0  0  0
 18 19  2  0  0  0
 19 20  1  0  0  0
 20 21  1  0  0  0
  1  2  1  0  0  0
  2  3  1  0  0  0
  3  4  1  0  0  0
  4  7  1  0  0  0
  7  8  1  0  0  0
  8  9  2  0  0  0
  9 10  1  0  0  0
 10 11  2  0  0  0
 11 12  1  0  0  0
 12 13  1  0  0  0
 13 14  1  0  0  0
 14 15  2  0  0  0
  4  5  1  0  0  0
  5  6  1  0  0  0
  6  1  1  0  0  0
 20 16  1  0  0  0
 12  7  2  0  0  0
 15 11  1  0  0  0
M  END
> <minimizedAffinity>
-5.75090

$$$$
OCNT-2308965


 27 29  0  0  0  0  0  0  0  0999 V2000
    2.2673   19.0521   19.7799 C   0  0  0  0  0  0  0  0  0  0  0  0
    1.2591   19.3962   18.9630 N   0  0  0  0  0  0  0  0  0  0  0  0
    0.3948   18.4375   18.6283 C   0  0  0  0  0  0  0  0  0  0  0  0
    0.4154   17.1723   19.0499 N   0  0  0  0  0  0  0  0  0  0  0  0
    1.4198   16.8189   19.8684 C   0  0  0  0  0  0  0  0  0  0  0  0
    2.4189   17.7334   20.2250 C   0  0  0  0  0  0  0  0  0  0  0  0
    3.6223   17.3059   21.0163 C   0  0  0  0  0  0  0  0  0  0  0  0
    5.0406   21.4288   19.7607 C   0  0  0  0  0  0  0  0  0  0  0  0
    3.7950   22.2776   19.5355 C   0  0  0  0  0  0  0  0  0  0  0  0
    2.6477   21.4267   20.0901 C   0  0  0  0  0  0  0  0  0  0  0  0
    3.1728   20.0520   20.1599 N   0  0  0  0  0  0  0  0  0  0  0  0
    4.4938   20.0162   19.4989 C   0  0  0  0  0  0  0  0  0  0  0  0
    7.2655   21.4879   22.8231 C   0  0  0  0  0  0  0  0  0  0  0  0
    6.9007   21.5457   21.3643 C   0  0  0  0  0  0  0  0  0  0  0  0
    7.7477   21.5546   20.4776 O   0  0  0  0  0  0  0  0  0  0  0  0
    5.5436   21.5754   21.1259 N   0  0  0  0  0  0  0  0  0  0  0  0
    4.9558   21.1858   21.8533 H   0  0  0  0  0  0  0  0  0  0  0  0
    1.4458   15.5035   20.3428 N   0  0  0  0  0  0  0  0  0  0  0  0
    2.4902   15.2082   21.3386 C   0  0  0  0  0  0  0  0  0  0  0  0
    1.7736   14.4856   22.4772 C   0  0  0  0  0  0  0  0  0  0  0  0
    0.5889   13.8284   21.7792 C   0  0  0  0  0  0  0  0  0  0  0  0
    0.1690   14.9304   20.7945 C   0  0  0  0  0  0  0  0  0  0  0  0
   -0.4551   13.4258   22.7057 N   0  0  0  0  0  0  0  0  0  0  0  0
   -0.5707   14.0217   23.9411 C   0  0  0  0  0  0  0  0  0  0  0  0
   -1.7664   13.5689   24.7350 C   0  0  0  0  0  0  0  0  0  0  0  0
    0.2154   14.8608   24.3674 O   0  0  0  0  0  0  0  0  0  0  0  0
   -1.2563   12.9277   22.3374 H   0  0  0  0  0  0  0  0  0  0  0  0
 13 14  1  0  0  0
 14 15  2  0  0  0
 14 16  1  0  0  0
 16  8  1  0  0  0
  8  9  1  0  0  0
  9 10  1  0  0  0
 10 11  1  0  0  0
 11  1  1  0  0  0
  1  2  1  0  0  0
  2  3  2  0  0  0
  3  4  1  0  0  0
  4  5  2  0  0  0
  5 18  1  0  0  0
 18 19  1  0  0  0
 19 20  1  0  0  0
 20 21  1  0  0  0
 21 23  1  0  0  0
 23 24  1  0  0  0
 24 25  1  0  0  0
 24 26  2  0  0  0
 21 22  1  0  0  0
  5  6  1  0  0  0
  6  7  1  0  0  0
 11 12  1  0  0  0
 12  8  1  0  0  0
  6  1  2  0  0  0
 22 18  1  0  0  0
 16 17  1  0  0  0
 23 27  1  0  0  0
M  END
> <minimizedAffinity>
-6.66907

$$$$
OCNT-2308971


 28 30  0  0  0  0  0  0  0  0999 V2000
    3.4933   16.6912   22.3873 N   0  0  0  0  0  0  0  0  0  0  0  0
    2.9177   15.6046   21.7804 C   0  0  0  0  0  0  0  0  0  0  0  0
    3.5280   14.7996   21.0912 O   0  0  0  0  0  0  0  0  0  0  0  0
    1.5820   15.5336   22.0626 N   0  0  0  0  0  0  0  0  0  0  0  0
    2.8847   17.5001   22.4296 H   0  0  0  0  0  0  0  0  0  0  0  0
    1.2555   16.0985   22.8293 H   0  0  0  0  0  0  0  0  0  0  0  0
    4.8733   17.0129   22.0987 C   0  0  0  0  0  0  0  0  0  0  0  0
    6.8534   21.6404   22.0670 C   0  0  0  0  0  0  0  0  0  0  0  0
    5.8889   20.6689   21.4599 C   0  0  0  0  0  0  0  0  0  0  0  0
    5.1078   20.9642   20.4104 C   0  0  0  0  0  0  0  0  0  0  0  0
    4.2411   20.0313   19.9038 N   0  0  0  0  0  0  0  0  0  0  0  0
    4.0900   18.7628   20.4104 C   0  0  0  0  0  0  0  0  0  0  0  0
    3.2696   17.9741   19.9509 O   0  0  0  0  0  0  0  0  0  0  0  0
    4.9660   18.4069   21.5671 C   0  0  0  0  0  0  0  0  0  0  0  0
    5.8107   19.3413   22.0422 C   0  0  0  0  0  0  0  0  0  0  0  0
    3.6450   20.2649   19.1193 H   0  0  0  0  0  0  0  0  0  0  0  0
    0.7374   14.4458   21.5954 C   0  0  0  0  0  0  0  0  0  0  0  0
    0.2117   14.7397   20.1948 C   0  0  0  0  0  0  0  0  0  0  0  0
    0.1762   16.0681   19.7377 C   0  0  0  0  0  0  0  0  0  0  0  0
   -0.2880   16.3736   18.4567 C   0  0  0  0  0  0  0  0  0  0  0  0
   -0.7221   15.3562   17.6112 C   0  0  0  0  0  0  0  0  0  0  0  0
   -0.6925   14.0337   18.0459 C   0  0  0  0  0  0  0  0  0  0  0  0
   -0.2289   13.7267   19.3275 C   0  0  0  0  0  0  0  0  0  0  0  0
   -0.4079   14.0735   22.5669 C   0  0  0  0  0  0  0  0  0  0  0  0
   -0.5021   12.5820   22.8973 C   0  0  0  0  0  0  0  0  0  0  0  0
   -1.5123   12.5454   24.0349 C   0  0  0  0  0  0  0  0  0  0  0  0
   -1.2578   13.8208   24.8345 C   0  0  0  0  0  0  0  0  0  0  0  0
   -0.3658   14.7073   23.9620 C   0  0  0  0  0  0  0  0  0  0  0  0
  8  9  1  0  0  0
  9 10  2  0  0  0
 10 11  1  0  0  0
 11 12  1  0  0  0
 12 13  2  0  0  0
 12 14  1  0  0  0
 14  7  1  0  0  0
  7  1  1  0  0  0
  1  2  1  0  0  0
  2  3  2  0  0  0
  2  4  1  0  0  0
  4 17  1  0  0  0
 17 18  1  0  0  0
 18 19  2  0  0  0
 19 20  1  0  0  0
 20 21  2  0  0  0
 21 22  1  0  0  0
 22 23  2  0  0  0
 17 24  1  0  0  0
 24 25  1  0  0  0
 25 26  1  0  0  0
 26 27  1  0  0  0
 27 28  1  0  0  0
 14 15  2  0  0  0
 15  9  1  0  0  0
 23 18  1  0  0  0
 28 24  1  0  0  0
 11 16  1  0  0  0
  1  5  1  0  0  0
  4  6  1  0  0  0
M  END
> <minimizedAffinity>
-8.69013

$$$$
OCNT-2308975


 25 27  0  0  0  0  0  0  0  0999 V2000
    3.7549   19.1111   19.9023 S   0  0  0  0  0  0  0  0  0  0  0  0
    4.4568   20.3733   19.8373 O   0  0  0  0  0  0  0  0  0  0  0  0
    4.1824   17.9906   19.0901 O   0  0  0  0  0  0  0  0  0  0  0  0
    2.1690   19.4836   19.3216 C   0  0  0  0  0  0  0  0  0  0  0  0
    1.6201   20.7538   19.2558 C   0  0  0  0  0  0  0  0  0  0  0  0
    0.3341   20.6315   18.8056 N   0  0  0  0  0  0  0  0  0  0  0  0
    0.0553   19.3161   18.5578 C   0  0  0  0  0  0  0  0  0  0  0  0
   -1.1324   18.8739   18.1066 N   0  0  0  0  0  0  0  0  0  0  0  0
   -1.1604   17.5380   17.9085 C   0  0  0  0  0  0  0  0  0  0  0  0
   -0.1063   16.6660   18.1391 C   0  0  0  0  0  0  0  0  0  0  0  0
    1.1005   17.1756   18.6201 C   0  0  0  0  0  0  0  0  0  0  0  0
    1.1911   18.5620   18.8463 C   0  0  0  0  0  0  0  0  0  0  0  0
   -0.3294   21.3809   18.6699 H   0  0  0  0  0  0  0  0  0  0  0  0
    3.7706   17.0942   21.8224 C   0  0  0  0  0  0  0  0  0  0  0  0
    5.2248   16.6383   21.5978 C   0  0  0  0  0  0  0  0  0  0  0  0
    5.5696   15.6072   21.0332 O   0  0  0  0  0  0  0  0  0  0  0  0
    6.1667   17.5035   22.1173 N   0  0  0  0  0  0  0  0  0  0  0  0
    5.7768   18.6017   22.9754 C   0  0  0  0  0  0  0  0  0  0  0  0
    4.5330   19.3687   22.4832 C   0  0  0  0  0  0  0  0  0  0  0  0
    3.6899   18.5747   21.5265 N   0  0  0  0  0  0  0  0  0  0  0  0
    7.1325   17.2022   22.0507 H   0  0  0  0  0  0  0  0  0  0  0  0
    2.7020   16.2656   21.0999 C   0  0  0  0  0  0  0  0  0  0  0  0
    0.8622   14.5568   21.2668 C   0  0  0  0  0  0  0  0  0  0  0  0
    2.1404   15.0845   21.9263 C   0  0  0  0  0  0  0  0  0  0  0  0
    3.1324   13.9373   22.1070 C   0  0  0  0  0  0  0  0  0  0  0  0
 23 24  1  0  0  0
 24 25  1  0  0  0
 24 22  1  0  0  0
 22 14  1  0  0  0
 14 15  1  0  0  0
 15 16  2  0  0  0
 15 17  1  0  0  0
 17 18  1  0  0  0
 18 19  1  0  0  0
 19 20  1  0  0  0
 20  1  1  0  0  0
  1  2  2  0  0  0
  1  3  2  0  0  0
  1  4  1  0  0  0
  4  5  2  0  0  0
  5  6  1  0  0  0
  6  7  1  0  0  0
  7  8  1  0  0  0
  8  9  2  0  0  0
  9 10  1  0  0  0
 10 11  2  0  0  0
 11 12  1  0  0  0
 20 14  1  0  0  0
 12  4  1  0  0  0
 12  7  2  0  0  0
 17 21  1  0  0  0
  6 13  1  0  0  0
M  END
> <minimizedAffinity>
-6.67200

$$$$
OCNT-2308989


 23 26  0  0  0  0  0  0  0  0999 V2000
    1.3950   15.7802   20.4214 N   0  0  0  0  0  0  0  0  0  0  0  0
    0.2753   16.1131   19.6900 C   0  0  0  0  0  0  0  0  0  0  0  0
    0.0638   17.2578   19.1320 N   0  0  0  0  0  0  0  0  0  0  0  0
    1.0575   18.1638   19.3126 C   0  0  0  0  0  0  0  0  0  0  0  0
    2.2484   17.9882   20.0009 C   0  0  0  0  0  0  0  0  0  0  0  0
    2.4752   16.6540   20.5483 C   0  0  0  0  0  0  0  0  0  0  0  0
    3.5303   16.2825   21.0516 O   0  0  0  0  0  0  0  0  0  0  0  0
    3.0331   19.2024   20.0179 C   0  0  0  0  0  0  0  0  0  0  0  0
    2.4154   20.1920   19.2726 C   0  0  0  0  0  0  0  0  0  0  0  0
    0.9106   19.7167   18.6351 S   0  0  0  0  0  0  0  0  0  0  0  0
    4.4165   19.5311   20.7513 C   0  0  0  0  0  0  0  0  0  0  0  0
    5.2804   20.5336   20.3400 C   0  0  0  0  0  0  0  0  0  0  0  0
    6.4416   20.6428   21.1629 C   0  0  0  0  0  0  0  0  0  0  0  0
    6.4272   19.7259   22.1855 C   0  0  0  0  0  0  0  0  0  0  0  0
    5.0252   18.7570   22.1437 S   0  0  0  0  0  0  0  0  0  0  0  0
    1.5384   14.4277   20.9387 C   0  0  0  0  0  0  0  0  0  0  0  0
   -0.4949   13.9294   23.8165 C   0  0  0  0  0  0  0  0  0  0  0  0
    0.4852   14.6466   24.3809 N   0  0  0  0  0  0  0  0  0  0  0  0
    1.3585   14.8879   23.3188 O   0  0  0  0  0  0  0  0  0  0  0  0
    0.8039   14.2951   22.2228 C   0  0  0  0  0  0  0  0  0  0  0  0
   -0.3444   13.7019   22.4716 N   0  0  0  0  0  0  0  0  0  0  0  0
   -2.0620   12.0221   24.1666 C   0  0  0  0  0  0  0  0  0  0  0  0
   -1.6615   13.4287   24.5819 C   0  0  0  0  0  0  0  0  0  0  0  0
 22 23  1  0  0  0
 23 17  1  0  0  0
 17 18  2  0  0  0
 18 19  1  0  0  0
 19 20  1  0  0  0
 20 16  1  0  0  0
 16  1  1  0  0  0
  1  2  1  0  0  0
  2  3  2  0  0  0
  3  4  1  0  0  0
  4  5  2  0  0  0
  5  6  1  0  0  0
  6  7  2  0  0  0
  5  8  1  0  0  0
  8 11  1  0  0  0
 11 12  2  0  0  0
 12 13  1  0  0  0
 13 14  2  0  0  0
 14 15  1  0  0  0
  8  9  2  0  0  0
  9 10  1  0  0  0
 20 21  2  0  0  0
 21 17  1  0  0  0
  6  1  1  0  0  0
 15 11  1  0  0  0
 10  4  1  0  0  0
M  END
> <minimizedAffinity>
-8.85036

$$$$
OCNT-2308995


 23 26  0  0  0  0  0  0  0  0999 V2000
    3.6272   16.1549   21.6616 C   0  0  0  0  0  0  0  0  0  0  0  0
    2.4064   16.2561   21.1754 N   0  0  0  0  0  0  0  0  0  0  0  0
    1.9146   14.9892   21.3773 C   0  0  0  0  0  0  0  0  0  0  0  0
    2.8030   14.1097   21.8604 N   0  0  0  0  0  0  0  0  0  0  0  0
    3.9407   14.8898   22.0717 O   0  0  0  0  0  0  0  0  0  0  0  0
    4.2608   18.1663   23.0529 C   0  0  0  0  0  0  0  0  0  0  0  0
    4.6456   17.2405   21.8949 C   0  0  0  0  0  0  0  0  0  0  0  0
    5.0965   18.0300   20.7044 N   0  0  0  0  0  0  0  0  0  0  0  0
    4.0481   18.2195   19.6595 C   0  0  0  0  0  0  0  0  0  0  0  0
    3.4637   19.6345   19.7763 C   0  0  0  0  0  0  0  0  0  0  0  0
    4.5780   20.3209   20.4793 C   0  0  0  0  0  0  0  0  0  0  0  0
    4.7388   21.6784   20.7048 C   0  0  0  0  0  0  0  0  0  0  0  0
    5.8503   22.0961   21.4350 C   0  0  0  0  0  0  0  0  0  0  0  0
    6.7702   21.1584   21.9252 C   0  0  0  0  0  0  0  0  0  0  0  0
    6.5808   19.7900   21.7043 C   0  0  0  0  0  0  0  0  0  0  0  0
    5.4685   19.3731   20.9920 C   0  0  0  0  0  0  0  0  0  0  0  0
    0.5048   14.6175   21.1017 C   0  0  0  0  0  0  0  0  0  0  0  0
    0.1395   15.2914   19.8048 C   0  0  0  0  0  0  0  0  0  0  0  0
   -0.4018   14.5680   18.7364 C   0  0  0  0  0  0  0  0  0  0  0  0
   -0.7273   15.2221   17.5515 C   0  0  0  0  0  0  0  0  0  0  0  0
   -0.5012   16.5854   17.4708 C   0  0  0  0  0  0  0  0  0  0  0  0
    0.0200   17.3199   18.4753 N   0  0  0  0  0  0  0  0  0  0  0  0
    0.3294   16.6598   19.6153 C   0  0  0  0  0  0  0  0  0  0  0  0
  6  7  1  0  0  0
  7  1  1  0  0  0
  1  2  2  0  0  0
  2  3  1  0  0  0
  3 17  1  0  0  0
 17 18  1  0  0  0
 18 19  1  0  0  0
 19 20  2  0  0  0
 20 21  1  0  0  0
 21 22  2  0  0  0
 22 23  1  0  0  0
  3  4  2  0  0  0
  4  5  1  0  0  0
  7  8  1  0  0  0
  8  9  1  0  0  0
  9 10  1  0  0  0
 10 11  1  0  0  0
 11 12  2  0  0  0
 12 13  1  0  0  0
 13 14  2  0  0  0
 14 15  1  0  0  0
 15 16  2  0  0  0
  5  1  1  0  0  0
 16  8  1  0  0  0
 23 18  2  0  0  0
 16 11  1  0  0  0
M  END
> <minimizedAffinity>
-10.85727

$$$$
OCNT-2308998


 28 30  0  0  0  0  0  0  0  0999 V2000
    4.0330   17.6395   22.1611 C   0  0  0  0  0  0  0  0  0  0  0  0
    4.3018   17.7913   23.3477 O   0  0  0  0  0  0  0  0  0  0  0  0
    4.5428   18.3725   21.1085 N   0  0  0  0  0  0  0  0  0  0  0  0
    4.3277   18.0621   20.1591 H   0  0  0  0  0  0  0  0  0  0  0  0
    1.3443   15.6905   20.3391 C   0  0  0  0  0  0  0  0  0  0  0  0
    1.4114   14.5116   21.0839 C   0  0  0  0  0  0  0  0  0  0  0  0
    2.2604   14.2948   22.1187 N   0  0  0  0  0  0  0  0  0  0  0  0
    3.0924   15.3126   22.4455 C   0  0  0  0  0  0  0  0  0  0  0  0
    3.1039   16.5385   21.7943 C   0  0  0  0  0  0  0  0  0  0  0  0
    2.2235   16.7145   20.7192 C   0  0  0  0  0  0  0  0  0  0  0  0
   -1.1334   18.6567   17.1301 C   0  0  0  0  0  0  0  0  0  0  0  0
   -0.7930   17.2843   17.6315 C   0  0  0  0  0  0  0  0  0  0  0  0
   -1.4023   16.1558   17.0761 C   0  0  0  0  0  0  0  0  0  0  0  0
   -1.1115   14.8861   17.5705 C   0  0  0  0  0  0  0  0  0  0  0  0
   -0.2158   14.7351   18.6311 C   0  0  0  0  0  0  0  0  0  0  0  0
    0.4041   15.8493   19.2195 C   0  0  0  0  0  0  0  0  0  0  0  0
    0.0950   17.1221   18.7062 C   0  0  0  0  0  0  0  0  0  0  0  0
    5.3827   19.5163   21.1546 C   0  0  0  0  0  0  0  0  0  0  0  0
    6.6002   19.5211   21.8458 C   0  0  0  0  0  0  0  0  0  0  0  0
    7.3926   20.6719   21.8997 C   0  0  0  0  0  0  0  0  0  0  0  0
    6.9766   21.8409   21.2726 C   0  0  0  0  0  0  0  0  0  0  0  0
    5.7691   21.8606   20.5766 C   0  0  0  0  0  0  0  0  0  0  0  0
    4.9739   20.7033   20.4975 C   0  0  0  0  0  0  0  0  0  0  0  0
    3.6903   20.7392   19.7323 C   0  0  0  0  0  0  0  0  0  0  0  0
    2.9465   21.8868   19.7729 N   0  0  0  0  0  0  0  0  0  0  0  0
    3.3264   19.7911   19.0429 O   0  0  0  0  0  0  0  0  0  0  0  0
    3.3361   22.7719   20.0650 H   0  0  0  0  0  0  0  0  0  0  0  0
    2.1531   21.9228   19.1441 H   0  0  0  0  0  0  0  0  0  0  0  0
 11 12  1  0  0  0
 12 13  2  0  0  0
 13 14  1  0  0  0
 14 15  2  0  0  0
 15 16  1  0  0  0
 16  5  1  0  0  0
  5  6  2  0  0  0
  6  7  1  0  0  0
  7  8  2  0  0  0
  8  9  1  0  0  0
  9  1  1  0  0  0
  1  2  2  0  0  0
  1  3  1  0  0  0
  3 18  1  0  0  0
 18 19  2  0  0  0
 19 20  1  0  0  0
 20 21  2  0  0  0
 21 22  1  0  0  0
 22 23  2  0  0  0
 23 24  1  0  0  0
 24 25  1  0  0  0
 24 26  2  0  0  0
  9 10  2  0  0  0
 16 17  2  0  0  0
 17 12  1  0  0  0
 10  5  1  0  0  0
 23 18  1  0  0  0
  3  4  1  0  0  0
 25 27  1  0  0  0
 25 28  1  0  0  0
M  END
> <minimizedAffinity>
-10.58289

$$$$
OCNT-2309004


 23 25  0  0  0  0  0  0  0  0999 V2000
    4.2963   18.1225   20.3265 O   0  0  0  0  0  0  0  0  0  0  0  0
    3.6310   19.0797   19.9423 C   0  0  0  0  0  0  0  0  0  0  0  0
    4.0048   20.3934   20.1225 N   0  0  0  0  0  0  0  0  0  0  0  0
    2.4150   18.9059   19.2823 N   0  0  0  0  0  0  0  0  0  0  0  0
    1.5108   19.9858   18.8857 C   0  0  0  0  0  0  0  0  0  0  0  0
    0.1624   19.4873   18.3702 C   0  0  0  0  0  0  0  0  0  0  0  0
   -0.4150   18.4282   19.3061 C   0  0  0  0  0  0  0  0  0  0  0  0
    0.5669   17.2601   19.5477 C   0  0  0  0  0  0  0  0  0  0  0  0
    1.9733   17.5428   18.9810 C   0  0  0  0  0  0  0  0  0  0  0  0
    3.4935   21.0853   19.6012 H   0  0  0  0  0  0  0  0  0  0  0  0
    5.1269   20.8652   20.8401 C   0  0  0  0  0  0  0  0  0  0  0  0
    5.1808   21.0473   22.2217 C   0  0  0  0  0  0  0  0  0  0  0  0
    6.2692   21.5193   22.8875 N   0  0  0  0  0  0  0  0  0  0  0  0
    7.3553   21.8222   22.1415 C   0  0  0  0  0  0  0  0  0  0  0  0
    7.3993   21.6792   20.7646 C   0  0  0  0  0  0  0  0  0  0  0  0
    8.8120   22.0910   19.8802 Cl  0  0  0  0  0  0  0  0  0  0  0  0
    6.2705   21.1968   20.1064 C   0  0  0  0  0  0  0  0  0  0  0  0
    0.0261   15.9601   19.0275 C   0  0  0  0  0  0  0  0  0  0  0  0
    0.0170   14.6962   19.5803 C   0  0  0  0  0  0  0  0  0  0  0  0
   -0.6189   13.8863   18.6231 C   0  0  0  0  0  0  0  0  0  0  0  0
   -0.9890   14.5757   17.5423 N   0  0  0  0  0  0  0  0  0  0  0  0
   -0.5848   15.8270   17.8069 N   0  0  0  0  0  0  0  0  0  0  0  0
   -0.7647   16.5417   17.1096 H   0  0  0  0  0  0  0  0  0  0  0  0
  1  2  2  0  0  0
  2  3  1  0  0  0
  3 11  1  0  0  0
 11 12  2  0  0  0
 12 13  1  0  0  0
 13 14  2  0  0  0
 14 15  1  0  0  0
 15 16  1  0  0  0
 15 17  2  0  0  0
  2  4  1  0  0  0
  4  5  1  0  0  0
  5  6  1  0  0  0
  6  7  1  0  0  0
  7  8  1  0  0  0
  8 18  1  0  0  0
 18 19  2  0  0  0
 19 20  1  0  0  0
 20 21  2  0  0  0
 21 22  1  0  0  0
  8  9  1  0  0  0
 17 11  1  0  0  0
  9  4  1  0  0  0
 22 18  1  0  0  0
  3 10  1  0  0  0
 22 23  1  0  0  0
M  END
> <minimizedAffinity>
-6.72927

$$$$
OCNT-2309014


 27 30  0  0  0  0  0  0  0  0999 V2000
    3.5317   17.2836   21.4383 C   0  0  0  0  0  0  0  0  0  0  0  0
    3.2536   18.1951   22.2114 O   0  0  0  0  0  0  0  0  0  0  0  0
    4.7743   17.1516   20.8627 N   0  0  0  0  0  0  0  0  0  0  0  0
    4.8906   16.4912   20.1040 H   0  0  0  0  0  0  0  0  0  0  0  0
    5.7658   18.2163   20.9644 C   0  0  0  0  0  0  0  0  0  0  0  0
    5.1526   19.5730   20.6407 C   0  0  0  0  0  0  0  0  0  0  0  0
    4.2564   19.6954   19.5621 C   0  0  0  0  0  0  0  0  0  0  0  0
    3.6978   20.9284   19.2270 C   0  0  0  0  0  0  0  0  0  0  0  0
    4.0361   22.0634   19.9548 C   0  0  0  0  0  0  0  0  0  0  0  0
    4.9423   21.9676   21.0092 C   0  0  0  0  0  0  0  0  0  0  0  0
    5.5205   20.7340   21.3511 C   0  0  0  0  0  0  0  0  0  0  0  0
    6.4884   20.6948   22.5091 C   0  0  0  0  0  0  0  0  0  0  0  0
    7.3127   19.4120   22.5700 C   0  0  0  0  0  0  0  0  0  0  0  0
    6.4368   18.1817   22.3652 C   0  0  0  0  0  0  0  0  0  0  0  0
    5.4667   18.1017   23.4251 O   0  0  0  0  0  0  0  0  0  0  0  0
    4.7575   18.7379   23.2253 H   0  0  0  0  0  0  0  0  0  0  0  0
   -1.1727   15.1485   18.1078 C   0  0  0  0  0  0  0  0  0  0  0  0
   -0.0854   15.8546   18.7226 N   0  0  0  0  0  0  0  0  0  0  0  0
    0.3940   17.0920   18.3568 C   0  0  0  0  0  0  0  0  0  0  0  0
   -0.0193   17.7952   17.4461 O   0  0  0  0  0  0  0  0  0  0  0  0
    1.4606   17.4735   19.1835 O   0  0  0  0  0  0  0  0  0  0  0  0
    1.5877   16.3987   20.0573 C   0  0  0  0  0  0  0  0  0  0  0  0
    2.5023   16.2666   21.0882 C   0  0  0  0  0  0  0  0  0  0  0  0
    2.4371   15.0838   21.8485 C   0  0  0  0  0  0  0  0  0  0  0  0
    1.4847   14.0837   21.5679 C   0  0  0  0  0  0  0  0  0  0  0  0
    0.5750   14.2428   20.5220 C   0  0  0  0  0  0  0  0  0  0  0  0
    0.6563   15.4096   19.7916 C   0  0  0  0  0  0  0  0  0  0  0  0
 17 18  1  0  0  0
 18 19  1  0  0  0
 19 20  2  0  0  0
 19 21  1  0  0  0
 21 22  1  0  0  0
 22 23  2  0  0  0
 23  1  1  0  0  0
  1  2  2  0  0  0
  1  3  1  0  0  0
  3  5  1  0  0  0
  5  6  1  0  0  0
  6  7  2  0  0  0
  7  8  1  0  0  0
  8  9  2  0  0  0
  9 10  1  0  0  0
 10 11  2  0  0  0
 11 12  1  0  0  0
 12 13  1  0  0  0
 13 14  1  0  0  0
 14 15  1  0  0  0
 23 24  1  0  0  0
 24 25  2  0  0  0
 25 26  1  0  0  0
 26 27  2  0  0  0
 27 18  1  0  0  0
 27 22  1  0  0  0
 14  5  1  0  0  0
 11  6  1  0  0  0
  3  4  1  0  0  0
 15 16  1  0  0  0
M  END
> <minimizedAffinity>
-8.88622

$$$$
OCNT-2309025


 26 30  0  0  0  0  0  0  0  0999 V2000
    3.4113   16.4647   21.4517 C   0  0  0  0  0  0  0  0  0  0  0  0
    3.2918   15.4023   22.3486 C   0  0  0  0  0  0  0  0  0  0  0  0
    2.2136   14.5260   22.2615 C   0  0  0  0  0  0  0  0  0  0  0  0
    1.2654   14.7061   21.2614 C   0  0  0  0  0  0  0  0  0  0  0  0
    1.4427   15.7580   20.3764 C   0  0  0  0  0  0  0  0  0  0  0  0
    2.4882   16.6298   20.4774 N   0  0  0  0  0  0  0  0  0  0  0  0
    0.5114   16.0012   19.3254 N   0  0  0  0  0  0  0  0  0  0  0  0
   -0.3207   15.0232   18.8170 C   0  0  0  0  0  0  0  0  0  0  0  0
   -1.0416   15.4360   17.8024 N   0  0  0  0  0  0  0  0  0  0  0  0
   -0.7184   16.7605   17.6646 C   0  0  0  0  0  0  0  0  0  0  0  0
   -1.2265   17.6894   16.7404 C   0  0  0  0  0  0  0  0  0  0  0  0
   -0.8133   19.0241   16.8185 C   0  0  0  0  0  0  0  0  0  0  0  0
    0.0835   19.4294   17.8043 C   0  0  0  0  0  0  0  0  0  0  0  0
    0.6116   18.5149   18.7266 C   0  0  0  0  0  0  0  0  0  0  0  0
    0.2213   17.1658   18.6202 C   0  0  0  0  0  0  0  0  0  0  0  0
    4.3188   18.6876   22.0786 C   0  0  0  0  0  0  0  0  0  0  0  0
    5.5220   18.8192   23.0361 C   0  0  0  0  0  0  0  0  0  0  0  0
    6.6022   17.9867   22.3625 C   0  0  0  0  0  0  0  0  0  0  0  0
    5.8174   16.7984   21.8199 C   0  0  0  0  0  0  0  0  0  0  0  0
    4.4844   17.3316   21.5166 N   0  0  0  0  0  0  0  0  0  0  0  0
    5.4626   21.5848   22.3978 C   0  0  0  0  0  0  0  0  0  0  0  0
    4.8437   21.0357   21.2225 N   0  0  0  0  0  0  0  0  0  0  0  0
    4.6328   21.7096   20.0565 C   0  0  0  0  0  0  0  0  0  0  0  0
    4.0362   20.9212   19.1905 N   0  0  0  0  0  0  0  0  0  0  0  0
    3.8272   19.7128   19.8098 N   0  0  0  0  0  0  0  0  0  0  0  0
    4.3316   19.7746   21.0347 C   0  0  0  0  0  0  0  0  0  0  0  0
 21 22  1  0  0  0
 22 23  1  0  0  0
 23 24  2  0  0  0
 24 25  1  0  0  0
 25 26  2  0  0  0
 26 16  1  0  0  0
 16 17  1  0  0  0
 17 18  1  0  0  0
 18 19  1  0  0  0
 19 20  1  0  0  0
 20  1  1  0  0  0
  1  2  1  0  0  0
  2  3  2  0  0  0
  3  4  1  0  0  0
  4  5  2  0  0  0
  5  7  1  0  0  0
  7  8  1  0  0  0
  8  9  2  0  0  0
  9 10  1  0  0  0
 10 11  2  0  0  0
 11 12  1  0  0  0
 12 13  2  0  0  0
 13 14  1  0  0  0
 14 15  2  0  0  0
  5  6  1  0  0  0
 26 22  1  0  0  0
 20 16  1  0  0  0
  6  1  2  0  0  0
 15  7  1  0  0  0
 15 10  1  0  0  0
M  END
> <minimizedAffinity>
-8.81795

$$$$
OCNT-2309038


 24 27  0  0  0  0  0  0  0  0999 V2000
   -0.1918   15.5039   19.9291 N   0  0  0  0  0  0  0  0  0  0  0  0
   -0.8007   14.9004   18.7344 C   0  0  0  0  0  0  0  0  0  0  0  0
   -0.0783   15.2385   17.4287 C   0  0  0  0  0  0  0  0  0  0  0  0
    0.0621   16.7475   17.2274 C   0  0  0  0  0  0  0  0  0  0  0  0
   -1.2303   17.2800   16.8800 O   0  0  0  0  0  0  0  0  0  0  0  0
   -1.1256   18.6784   16.5872 C   0  0  0  0  0  0  0  0  0  0  0  0
   -0.6361   19.4587   17.8053 C   0  0  0  0  0  0  0  0  0  0  0  0
    0.6090   18.9145   18.3543 N   0  0  0  0  0  0  0  0  0  0  0  0
    1.3387   19.7738   19.2012 C   0  0  0  0  0  0  0  0  0  0  0  0
    0.9264   20.9135   19.4327 O   0  0  0  0  0  0  0  0  0  0  0  0
    0.6388   17.4370   18.4863 C   0  0  0  0  0  0  0  0  0  0  0  0
   -0.1140   16.9671   19.7591 C   0  0  0  0  0  0  0  0  0  0  0  0
    2.6010   19.3076   19.8168 C   0  0  0  0  0  0  0  0  0  0  0  0
    2.8590   18.0175   20.1166 N   0  0  0  0  0  0  0  0  0  0  0  0
    4.1121   18.0316   20.5970 N   0  0  0  0  0  0  0  0  0  0  0  0
    4.6916   19.2671   20.6334 C   0  0  0  0  0  0  0  0  0  0  0  0
    5.9549   19.6880   21.0609 C   0  0  0  0  0  0  0  0  0  0  0  0
    6.2439   21.0515   20.9474 C   0  0  0  0  0  0  0  0  0  0  0  0
    5.3088   21.9453   20.4265 C   0  0  0  0  0  0  0  0  0  0  0  0
    4.0502   21.4997   20.0047 C   0  0  0  0  0  0  0  0  0  0  0  0
    3.7353   20.1306   20.1137 C   0  0  0  0  0  0  0  0  0  0  0  0
    4.5261   17.1523   20.8841 H   0  0  0  0  0  0  0  0  0  0  0  0
    1.0516   14.1713   21.6325 C   0  0  0  0  0  0  0  0  0  0  0  0
    1.1060   14.9309   20.3113 C   0  0  0  0  0  0  0  0  0  0  0  0
 23 24  1  0  0  0
 24  1  1  0  0  0
  1  2  1  0  0  0
  2  3  1  0  0  0
  3  4  1  0  0  0
  4  5  1  0  0  0
  5  6  1  0  0  0
  6  7  1  0  0  0
  7  8  1  0  0  0
  8  9  1  0  0  0
  9 10  2  0  0  0
  9 13  1  0  0  0
 13 14  2  0  0  0
 14 15  1  0  0  0
 15 16  1  0  0  0
 16 17  2  0  0  0
 17 18  1  0  0  0
 18 19  2  0  0  0
 19 20  1  0  0  0
 20 21  2  0  0  0
  8 11  1  0  0  0
 11 12  1  0  0  0
 12  1  1  0  0  0
 11  4  1  0  0  0
 21 13  1  0  0  0
 21 16  1  0  0  0
 15 22  1  0  0  0
M  END
> <minimizedAffinity>
-7.41090

$$$$
OCNT-2309039


 29 32  0  0  0  0  0  0  0  0999 V2000
   -1.9746   18.6356   17.3450 C   0  0  0  0  0  0  0  0  0  0  0  0
   -0.4651   18.4342   17.4730 C   0  0  0  0  0  0  0  0  0  0  0  0
   -0.1940   17.4492   18.5126 N   0  0  0  0  0  0  0  0  0  0  0  0
   -0.2432   16.0944   18.2765 C   0  0  0  0  0  0  0  0  0  0  0  0
   -0.6216   15.6147   17.2116 O   0  0  0  0  0  0  0  0  0  0  0  0
    0.2401   17.7499   19.3840 H   0  0  0  0  0  0  0  0  0  0  0  0
    0.2034   15.2676   19.3893 C   0  0  0  0  0  0  0  0  0  0  0  0
   -0.3513   14.0460   19.7402 C   0  0  0  0  0  0  0  0  0  0  0  0
    0.3173   13.5568   20.8310 N   0  0  0  0  0  0  0  0  0  0  0  0
    1.3093   14.4308   21.2030 C   0  0  0  0  0  0  0  0  0  0  0  0
    2.2476   14.3794   22.2332 C   0  0  0  0  0  0  0  0  0  0  0  0
    3.1197   15.4614   22.3141 C   0  0  0  0  0  0  0  0  0  0  0  0
    3.0101   16.4944   21.3934 C   0  0  0  0  0  0  0  0  0  0  0  0
    2.1103   16.5625   20.3879 N   0  0  0  0  0  0  0  0  0  0  0  0
    1.2578   15.5046   20.3168 C   0  0  0  0  0  0  0  0  0  0  0  0
    0.1142   12.6807   21.2936 H   0  0  0  0  0  0  0  0  0  0  0  0
    0.2744   19.7677   17.7737 C   0  0  0  0  0  0  0  0  0  0  0  0
    1.2892   19.6798   18.8353 N   0  0  0  0  0  0  0  0  0  0  0  0
    2.5707   19.1724   18.3223 C   0  0  0  0  0  0  0  0  0  0  0  0
    3.6399   19.0345   19.4341 C   0  0  0  0  0  0  0  0  0  0  0  0
    3.7488   20.2438   20.2696 N   0  0  0  0  0  0  0  0  0  0  0  0
    2.9481   21.3915   19.8260 C   0  0  0  0  0  0  0  0  0  0  0  0
    1.4816   20.9706   19.5418 C   0  0  0  0  0  0  0  0  0  0  0  0
    5.0231   20.5527   20.7512 C   0  0  0  0  0  0  0  0  0  0  0  0
    5.6877   21.7000   20.3098 C   0  0  0  0  0  0  0  0  0  0  0  0
    6.9658   21.9976   20.7822 C   0  0  0  0  0  0  0  0  0  0  0  0
    7.5684   21.1383   21.6857 C   0  0  0  0  0  0  0  0  0  0  0  0
    6.8629   20.0147   22.0694 C   0  0  0  0  0  0  0  0  0  0  0  0
    5.6235   19.7107   21.6226 N   0  0  0  0  0  0  0  0  0  0  0  0
  1  2  1  0  0  0
  2 17  1  0  0  0
 17 18  1  0  0  0
 18 19  1  0  0  0
 19 20  1  0  0  0
 20 21  1  0  0  0
 21 24  1  0  0  0
 24 25  2  0  0  0
 25 26  1  0  0  0
 26 27  2  0  0  0
 27 28  1  0  0  0
 28 29  2  0  0  0
 21 22  1  0  0  0
 22 23  1  0  0  0
  2  3  1  0  0  0
  3  4  1  0  0  0
  4  5  2  0  0  0
  4  7  1  0  0  0
  7  8  2  0  0  0
  8  9  1  0  0  0
  9 10  1  0  0  0
 10 11  1  0  0  0
 11 12  2  0  0  0
 12 13  1  0  0  0
 13 14  2  0  0  0
 14 15  1  0  0  0
 23 18  1  0  0  0
 15  7  1  0  0  0
 29 24  1  0  0  0
 15 10  2  0  0  0
  3  6  1  0  0  0
  9 16  1  0  0  0
M  END
> <minimizedAffinity>
-7.43976

$$$$
OCNT-2309040


 26 28  0  0  0  0  0  0  0  0999 V2000
    7.3560   21.8413   22.2220 O   0  0  0  0  0  0  0  0  0  0  0  0
    6.3836   21.2745   21.7304 C   0  0  0  0  0  0  0  0  0  0  0  0
    5.3562   21.9814   20.8511 C   0  0  0  0  0  0  0  0  0  0  0  0
    4.5320   21.2151   19.9867 O   0  0  0  0  0  0  0  0  0  0  0  0
    4.2517   19.9458   20.4404 C   0  0  0  0  0  0  0  0  0  0  0  0
    3.1793   19.2762   19.8095 C   0  0  0  0  0  0  0  0  0  0  0  0
    2.8778   17.9774   20.2345 C   0  0  0  0  0  0  0  0  0  0  0  0
    3.6580   17.3459   21.2072 C   0  0  0  0  0  0  0  0  0  0  0  0
    3.2757   15.7372   21.6895 Cl  0  0  0  0  0  0  0  0  0  0  0  0
    4.7380   17.9985   21.7958 C   0  0  0  0  0  0  0  0  0  0  0  0
    5.0265   19.3056   21.4163 C   0  0  0  0  0  0  0  0  0  0  0  0
    6.1107   19.9626   21.9994 N   0  0  0  0  0  0  0  0  0  0  0  0
    6.7323   19.4892   22.6420 H   0  0  0  0  0  0  0  0  0  0  0  0
    2.3947   19.9790   18.8806 N   0  0  0  0  0  0  0  0  0  0  0  0
    2.8106   19.8913   17.9507 H   0  0  0  0  0  0  0  0  0  0  0  0
    0.9430   19.8516   18.8847 C   0  0  0  0  0  0  0  0  0  0  0  0
    0.4469   19.4270   17.5068 C   0  0  0  0  0  0  0  0  0  0  0  0
   -0.9550   18.8318   17.5907 C   0  0  0  0  0  0  0  0  0  0  0  0
   -0.9585   17.4774   17.1401 O   0  0  0  0  0  0  0  0  0  0  0  0
   -0.6242   16.4867   18.0189 C   0  0  0  0  0  0  0  0  0  0  0  0
   -0.6574   15.1136   17.7720 C   0  0  0  0  0  0  0  0  0  0  0  0
   -0.2906   14.2093   18.7758 C   0  0  0  0  0  0  0  0  0  0  0  0
    0.1061   14.6781   20.0263 C   0  0  0  0  0  0  0  0  0  0  0  0
    0.5559   13.5624   21.2556 Cl  0  0  0  0  0  0  0  0  0  0  0  0
    0.1368   16.0447   20.2849 C   0  0  0  0  0  0  0  0  0  0  0  0
   -0.2305   16.9439   19.2811 C   0  0  0  0  0  0  0  0  0  0  0  0
  1  2  2  0  0  0
  2  3  1  0  0  0
  3  4  1  0  0  0
  4  5  1  0  0  0
  5  6  1  0  0  0
  6 14  1  0  0  0
 14 16  1  0  0  0
 16 17  1  0  0  0
 17 18  1  0  0  0
 18 19  1  0  0  0
 19 20  1  0  0  0
 20 21  1  0  0  0
 21 22  2  0  0  0
 22 23  1  0  0  0
 23 24  1  0  0  0
 23 25  2  0  0  0
 25 26  1  0  0  0
  6  7  2  0  0  0
  7  8  1  0  0  0
  8  9  1  0  0  0
  8 10  2  0  0  0
 10 11  1  0  0  0
 11 12  1  0  0  0
 12  2  1  0  0  0
 11  5  2  0  0  0
 26 20  2  0  0  0
 14 15  1  0  0  0
 12 13  1  0  0  0
M  END
> <minimizedAffinity>
-9.72241

$$$$
OCNT-2309042


 23 25  0  0  0  0  0  0  0  0999 V2000
    2.3305   17.5533   20.2528 C   0  0  0  0  0  0  0  0  0  0  0  0
    3.0492   18.6834   20.1842 N   0  0  0  0  0  0  0  0  0  0  0  0
    4.0775   18.5477   21.0536 N   0  0  0  0  0  0  0  0  0  0  0  0
    3.9877   17.3357   21.7096 C   0  0  0  0  0  0  0  0  0  0  0  0
    2.8873   16.6784   21.2161 C   0  0  0  0  0  0  0  0  0  0  0  0
    5.0554   19.5676   21.2023 C   0  0  0  0  0  0  0  0  0  0  0  0
    6.2074   19.3499   21.9701 C   0  0  0  0  0  0  0  0  0  0  0  0
    6.4536   18.1825   22.5798 F   0  0  0  0  0  0  0  0  0  0  0  0
    7.1743   20.3474   22.1283 C   0  0  0  0  0  0  0  0  0  0  0  0
    7.0107   21.5872   21.5203 C   0  0  0  0  0  0  0  0  0  0  0  0
    5.8749   21.8210   20.7527 C   0  0  0  0  0  0  0  0  0  0  0  0
    4.9104   20.8204   20.5974 C   0  0  0  0  0  0  0  0  0  0  0  0
    3.8457   21.1320   19.8464 F   0  0  0  0  0  0  0  0  0  0  0  0
    0.4695   16.3092   19.4804 O   0  0  0  0  0  0  0  0  0  0  0  0
    1.1339   17.3356   19.4065 C   0  0  0  0  0  0  0  0  0  0  0  0
    0.8963   18.3987   18.5476 N   0  0  0  0  0  0  0  0  0  0  0  0
    1.5870   19.1278   18.4775 H   0  0  0  0  0  0  0  0  0  0  0  0
   -0.2020   18.4321   17.7258 C   0  0  0  0  0  0  0  0  0  0  0  0
   -0.2993   18.7248   16.4493 N   0  0  0  0  0  0  0  0  0  0  0  0
   -1.6183   18.5980   16.0713 N   0  0  0  0  0  0  0  0  0  0  0  0
   -2.2976   18.2327   17.1297 C   0  0  0  0  0  0  0  0  0  0  0  0
   -1.4518   18.1128   18.1883 N   0  0  0  0  0  0  0  0  0  0  0  0
   -1.7014   17.8496   19.1276 H   0  0  0  0  0  0  0  0  0  0  0  0
 14 15  2  0  0  0
 15 16  1  0  0  0
 16 18  1  0  0  0
 18 19  2  0  0  0
 19 20  1  0  0  0
 20 21  2  0  0  0
 21 22  1  0  0  0
 15  1  1  0  0  0
  1  2  2  0  0  0
  2  3  1  0  0  0
  3  6  1  0  0  0
  6  7  2  0  0  0
  7  8  1  0  0  0
  7  9  1  0  0  0
  9 10  2  0  0  0
 10 11  1  0  0  0
 11 12  2  0  0  0
 12 13  1  0  0  0
  3  4  1  0  0  0
  4  5  2  0  0  0
 22 18  1  0  0  0
  5  1  1  0  0  0
 12  6  1  0  0  0
 16 17  1  0  0  0
 22 23  1  0  0  0
M  END
> <minimizedAffinity>
-9.90082

$$$$
OCNT-2309065


 28 31  0  0  0  0  0  0  0  0999 V2000
    4.1607   17.7825   20.6940 C   0  0  0  0  0  0  0  0  0  0  0  0
    3.0857   17.3803   21.3377 N   0  0  0  0  0  0  0  0  0  0  0  0
    3.4533   16.1271   21.7550 C   0  0  0  0  0  0  0  0  0  0  0  0
    4.6831   15.7467   21.3867 N   0  0  0  0  0  0  0  0  0  0  0  0
    5.1612   16.8518   20.6813 O   0  0  0  0  0  0  0  0  0  0  0  0
    4.4387   19.0702   19.9898 C   0  0  0  0  0  0  0  0  0  0  0  0
    3.1499   19.6901   19.4437 C   0  0  0  0  0  0  0  0  0  0  0  0
    4.4475   22.3267   19.8145 C   0  0  0  0  0  0  0  0  0  0  0  0
    5.1887   21.4625   20.7637 C   0  0  0  0  0  0  0  0  0  0  0  0
    5.9755   22.0167   21.6912 N   0  0  0  0  0  0  0  0  0  0  0  0
    6.5188   20.9677   22.4010 O   0  0  0  0  0  0  0  0  0  0  0  0
    6.0562   19.7910   21.9047 C   0  0  0  0  0  0  0  0  0  0  0  0
    6.5634   18.5730   22.5680 C   0  0  0  0  0  0  0  0  0  0  0  0
    5.1977   20.0390   20.8500 C   0  0  0  0  0  0  0  0  0  0  0  0
    2.5507   15.2549   22.5453 C   0  0  0  0  0  0  0  0  0  0  0  0
    2.0756   14.0454   21.7367 C   0  0  0  0  0  0  0  0  0  0  0  0
    0.5687   14.0792   21.4975 C   0  0  0  0  0  0  0  0  0  0  0  0
    0.2373   15.3163   20.8720 O   0  0  0  0  0  0  0  0  0  0  0  0
   -0.1418   15.2908   19.5510 C   0  0  0  0  0  0  0  0  0  0  0  0
   -0.4592   14.1220   18.8507 C   0  0  0  0  0  0  0  0  0  0  0  0
   -0.8354   14.1849   17.5101 C   0  0  0  0  0  0  0  0  0  0  0  0
   -0.8957   15.4136   16.8570 C   0  0  0  0  0  0  0  0  0  0  0  0
   -0.5785   16.6000   17.5326 C   0  0  0  0  0  0  0  0  0  0  0  0
   -0.6383   17.8373   16.8692 C   0  0  0  0  0  0  0  0  0  0  0  0
   -0.3233   19.0228   17.5327 C   0  0  0  0  0  0  0  0  0  0  0  0
    0.0559   18.9871   18.8687 C   0  0  0  0  0  0  0  0  0  0  0  0
    0.1193   17.7649   19.5410 C   0  0  0  0  0  0  0  0  0  0  0  0
   -0.1945   16.5483   18.8951 C   0  0  0  0  0  0  0  0  0  0  0  0
  8  9  1  0  0  0
  9 10  2  0  0  0
 10 11  1  0  0  0
 11 12  1  0  0  0
 12 13  1  0  0  0
 12 14  2  0  0  0
 14  6  1  0  0  0
  6  7  1  0  0  0
  6  1  1  0  0  0
  1  2  2  0  0  0
  2  3  1  0  0  0
  3 15  1  0  0  0
 15 16  1  0  0  0
 16 17  1  0  0  0
 17 18  1  0  0  0
 18 19  1  0  0  0
 19 20  2  0  0  0
 20 21  1  0  0  0
 21 22  2  0  0  0
 22 23  1  0  0  0
 23 24  2  0  0  0
 24 25  1  0  0  0
 25 26  2  0  0  0
 26 27  1  0  0  0
 27 28  2  0  0  0
  3  4  2  0  0  0
  4  5  1  0  0  0
 14  9  1  0  0  0
  5  1  1  0  0  0
 28 19  1  0  0  0
 28 23  1  0  0  0
M  END
> <minimizedAffinity>
-9.58970

$$$$
OCNT-2309070


 24 25  0  0  0  0  0  0  0  0999 V2000
    1.6504   18.0741   19.7989 N   0  0  0  0  0  0  0  0  0  0  0  0
    2.5111   19.1374   19.6111 C   0  0  0  0  0  0  0  0  0  0  0  0
    2.3671   20.0544   18.8098 O   0  0  0  0  0  0  0  0  0  0  0  0
    1.9173   17.3131   20.4183 H   0  0  0  0  0  0  0  0  0  0  0  0
   -0.2759   16.6647   19.0010 C   0  0  0  0  0  0  0  0  0  0  0  0
   -1.4163   16.8508   18.3056 N   0  0  0  0  0  0  0  0  0  0  0  0
   -1.4163   18.1630   18.0206 N   0  0  0  0  0  0  0  0  0  0  0  0
   -0.3315   18.8290   18.5016 C   0  0  0  0  0  0  0  0  0  0  0  0
    0.4410   17.8945   19.1432 C   0  0  0  0  0  0  0  0  0  0  0  0
   -2.1951   18.5413   17.4906 H   0  0  0  0  0  0  0  0  0  0  0  0
    0.1491   15.3635   19.5342 C   0  0  0  0  0  0  0  0  0  0  0  0
   -0.3168   14.3027   19.1195 O   0  0  0  0  0  0  0  0  0  0  0  0
    1.2507   14.2692   21.2935 C   0  0  0  0  0  0  0  0  0  0  0  0
    1.0953   15.4537   20.5154 O   0  0  0  0  0  0  0  0  0  0  0  0
    3.7388   19.1183   20.4599 C   0  0  0  0  0  0  0  0  0  0  0  0
    3.9919   17.9781   21.2322 C   0  0  0  0  0  0  0  0  0  0  0  0
    5.1253   17.9133   22.0424 C   0  0  0  0  0  0  0  0  0  0  0  0
    6.0208   18.9824   22.0758 C   0  0  0  0  0  0  0  0  0  0  0  0
    5.8008   20.1234   21.2881 C   0  0  0  0  0  0  0  0  0  0  0  0
    4.6491   20.1853   20.4825 C   0  0  0  0  0  0  0  0  0  0  0  0
    6.7704   21.2804   21.3283 C   0  0  0  0  0  0  0  0  0  0  0  0
    6.3650   22.3468   20.5850 F   0  0  0  0  0  0  0  0  0  0  0  0
    7.9994   20.9374   20.8555 F   0  0  0  0  0  0  0  0  0  0  0  0
    6.9728   21.7589   22.5872 F   0  0  0  0  0  0  0  0  0  0  0  0
 13 14  1  0  0  0
 14 11  1  0  0  0
 11 12  2  0  0  0
 11  5  1  0  0  0
  5  6  2  0  0  0
  6  7  1  0  0  0
  7  8  1  0  0  0
  8  9  2  0  0  0
  9  1  1  0  0  0
  1  2  1  0  0  0
  2  3  2  0  0  0
  2 15  1  0  0  0
 15 16  1  0  0  0
 16 17  2  0  0  0
 17 18  1  0  0  0
 18 19  2  0  0  0
 19 21  1  0  0  0
 21 22  1  0  0  0
 21 23  1  0  0  0
 21 24  1  0  0  0
 19 20  1  0  0  0
  9  5  1  0  0  0
 20 15  2  0  0  0
  7 10  1  0  0  0
  1  4  1  0  0  0
M  END
> <minimizedAffinity>
-10.59839

$$$$
OCNT-2309077


 25 27  0  0  0  0  0  0  0  0999 V2000
    1.0321   15.0724   20.5082 N   0  0  0  0  0  0  0  0  0  0  0  0
    0.1872   15.2417   19.4094 C   0  0  0  0  0  0  0  0  0  0  0  0
   -0.5869   14.3800   18.9949 O   0  0  0  0  0  0  0  0  0  0  0  0
    0.2216   16.5499   18.7361 C   0  0  0  0  0  0  0  0  0  0  0  0
   -0.5865   16.8152   17.6234 C   0  0  0  0  0  0  0  0  0  0  0  0
   -0.5479   18.0750   17.0272 C   0  0  0  0  0  0  0  0  0  0  0  0
    0.2892   19.0612   17.5466 C   0  0  0  0  0  0  0  0  0  0  0  0
    1.0899   18.7842   18.6579 C   0  0  0  0  0  0  0  0  0  0  0  0
    1.0675   17.5220   19.2572 C   0  0  0  0  0  0  0  0  0  0  0  0
    1.8938   17.2797   20.3572 N   0  0  0  0  0  0  0  0  0  0  0  0
    1.8579   16.1097   20.9067 C   0  0  0  0  0  0  0  0  0  0  0  0
    0.0495   13.7984   22.4023 C   0  0  0  0  0  0  0  0  0  0  0  0
    0.9489   13.7676   21.1732 C   0  0  0  0  0  0  0  0  0  0  0  0
    2.9053   15.9102   22.2943 S   0  0  0  0  0  0  0  0  0  0  0  0
    4.5417   16.0099   21.5319 C   0  0  0  0  0  0  0  0  0  0  0  0
    4.8796   17.3637   20.9314 C   0  0  0  0  0  0  0  0  0  0  0  0
    4.8387   17.4973   19.7035 O   0  0  0  0  0  0  0  0  0  0  0  0
    5.2890   18.3947   21.7770 N   0  0  0  0  0  0  0  0  0  0  0  0
    5.0378   18.4036   23.2160 C   0  0  0  0  0  0  0  0  0  0  0  0
    5.7290   19.6565   21.1474 C   0  0  0  0  0  0  0  0  0  0  0  0
    4.5315   20.4792   20.6324 C   0  0  0  0  0  0  0  0  0  0  0  0
    4.8289   21.9743   20.4920 C   0  0  0  0  0  0  0  0  0  0  0  0
    6.2946   22.2359   20.1763 C   0  0  0  0  0  0  0  0  0  0  0  0
    7.2186   21.7061   21.2748 C   0  0  0  0  0  0  0  0  0  0  0  0
    6.6415   20.5102   22.0383 C   0  0  0  0  0  0  0  0  0  0  0  0
 12 13  1  0  0  0
 13  1  1  0  0  0
  1  2  1  0  0  0
  2  3  2  0  0  0
  2  4  1  0  0  0
  4  5  2  0  0  0
  5  6  1  0  0  0
  6  7  2  0  0  0
  7  8  1  0  0  0
  8  9  2  0  0  0
  9 10  1  0  0  0
 10 11  2  0  0  0
 11 14  1  0  0  0
 14 15  1  0  0  0
 15 16  1  0  0  0
 16 17  2  0  0  0
 16 18  1  0  0  0
 18 19  1  0  0  0
 18 20  1  0  0  0
 20 21  1  0  0  0
 21 22  1  0  0  0
 22 23  1  0  0  0
 23 24  1  0  0  0
 24 25  1  0  0  0
 11  1  1  0  0  0
 25 20  1  0  0  0
  9  4  1  0  0  0
M  END
> <minimizedAffinity>
-9.12228

$$$$
OCNT-2309093


 22 25  0  0  0  0  0  0  0  0999 V2000
    2.8684   19.6510   19.7070 C   0  0  0  0  0  0  0  0  0  0  0  0
    2.5382   18.5370   18.9665 C   0  0  0  0  0  0  0  0  0  0  0  0
    1.2541   18.7761   18.5722 N   0  0  0  0  0  0  0  0  0  0  0  0
    0.8220   19.9757   19.0032 N   0  0  0  0  0  0  0  0  0  0  0  0
    1.8049   20.5177   19.7104 N   0  0  0  0  0  0  0  0  0  0  0  0
    4.6185   19.0507   21.3813 C   0  0  0  0  0  0  0  0  0  0  0  0
    5.8539   19.2965   21.9918 C   0  0  0  0  0  0  0  0  0  0  0  0
    6.6051   20.4115   21.6253 C   0  0  0  0  0  0  0  0  0  0  0  0
    6.1311   21.2727   20.6387 C   0  0  0  0  0  0  0  0  0  0  0  0
    4.9075   21.0156   20.0124 C   0  0  0  0  0  0  0  0  0  0  0  0
    4.1357   19.8966   20.3697 C   0  0  0  0  0  0  0  0  0  0  0  0
    4.7396   16.7540   21.4458 C   0  0  0  0  0  0  0  0  0  0  0  0
    3.9434   17.9062   21.7261 O   0  0  0  0  0  0  0  0  0  0  0  0
    0.3915   17.9312   17.7709 C   0  0  0  0  0  0  0  0  0  0  0  0
    0.1460   16.6352   18.4484 C   0  0  0  0  0  0  0  0  0  0  0  0
   -0.5479   15.5313   18.0061 C   0  0  0  0  0  0  0  0  0  0  0  0
   -0.4919   14.5770   18.9732 O   0  0  0  0  0  0  0  0  0  0  0  0
    0.2438   15.1517   19.9733 C   0  0  0  0  0  0  0  0  0  0  0  0
    0.6539   16.3767   19.7053 N   0  0  0  0  0  0  0  0  0  0  0  0
    0.5711   14.4204   21.3067 C   0  0  0  0  0  0  0  0  0  0  0  0
    1.7604   14.8743   22.1139 C   0  0  0  0  0  0  0  0  0  0  0  0
    1.8054   13.5590   21.3911 C   0  0  0  0  0  0  0  0  0  0  0  0
 12 13  1  0  0  0
 13  6  1  0  0  0
  6  7  2  0  0  0
  7  8  1  0  0  0
  8  9  2  0  0  0
  9 10  1  0  0  0
 10 11  2  0  0  0
 11  1  1  0  0  0
  1  2  2  0  0  0
  2  3  1  0  0  0
  3 14  1  0  0  0
 14 15  1  0  0  0
 15 16  2  0  0  0
 16 17  1  0  0  0
 17 18  1  0  0  0
 18 20  1  0  0  0
 20 21  1  0  0  0
 21 22  1  0  0  0
 18 19  2  0  0  0
  3  4  1  0  0  0
  4  5  2  0  0  0
 11  6  1  0  0  0
  5  1  1  0  0  0
 19 15  1  0  0  0
 22 20  1  0  0  0
M  END
> <minimizedAffinity>
-9.72118

$$$$
OCNT-2309109


 25 27  0  0  0  0  0  0  0  0999 V2000
    4.2161   16.7123   21.0228 N   0  0  0  0  0  0  0  0  0  0  0  0
    4.1064   17.4552   20.3332 H   0  0  0  0  0  0  0  0  0  0  0  0
    2.9242   16.2193   21.4688 C   0  0  0  0  0  0  0  0  0  0  0  0
    3.0230   14.7070   21.7700 C   0  0  0  0  0  0  0  0  0  0  0  0
    1.6065   14.1459   21.6008 C   0  0  0  0  0  0  0  0  0  0  0  0
    1.0838   15.0309   20.5111 C   0  0  0  0  0  0  0  0  0  0  0  0
   -0.0081   14.8043   19.6889 C   0  0  0  0  0  0  0  0  0  0  0  0
   -0.3349   15.7813   18.7516 C   0  0  0  0  0  0  0  0  0  0  0  0
   -1.3862   15.5677   17.9456 F   0  0  0  0  0  0  0  0  0  0  0  0
    0.4095   16.9648   18.6502 C   0  0  0  0  0  0  0  0  0  0  0  0
   -0.0153   18.1633   17.4870 Cl  0  0  0  0  0  0  0  0  0  0  0  0
    1.5010   17.1920   19.4938 C   0  0  0  0  0  0  0  0  0  0  0  0
    1.8370   16.2138   20.4213 C   0  0  0  0  0  0  0  0  0  0  0  0
    5.0875   17.1367   22.1234 C   0  0  0  0  0  0  0  0  0  0  0  0
    4.7338   18.5286   22.7055 C   0  0  0  0  0  0  0  0  0  0  0  0
    5.1005   18.5535   24.0939 O   0  0  0  0  0  0  0  0  0  0  0  0
    5.0521   19.4859   24.3689 H   0  0  0  0  0  0  0  0  0  0  0  0
    4.8468   20.2205   20.7998 C   0  0  0  0  0  0  0  0  0  0  0  0
    5.4962   21.2789   20.1533 C   0  0  0  0  0  0  0  0  0  0  0  0
    6.6938   21.7925   20.6571 C   0  0  0  0  0  0  0  0  0  0  0  0
    7.2566   21.2519   21.8078 C   0  0  0  0  0  0  0  0  0  0  0  0
    6.6175   20.2008   22.4616 C   0  0  0  0  0  0  0  0  0  0  0  0
    5.4025   19.6802   21.9765 C   0  0  0  0  0  0  0  0  0  0  0  0
    2.9243   20.3581   19.3914 C   0  0  0  0  0  0  0  0  0  0  0  0
    3.6766   19.6497   20.3686 O   0  0  0  0  0  0  0  0  0  0  0  0
 24 25  1  0  0  0
 25 18  1  0  0  0
 18 19  2  0  0  0
 19 20  1  0  0  0
 20 21  2  0  0  0
 21 22  1  0  0  0
 22 23  2  0  0  0
 23 15  1  0  0  0
 15 16  1  0  0  0
 15 14  1  0  0  0
 14  1  1  0  0  0
  1  3  1  0  0  0
  3  4  1  0  0  0
  4  5  1  0  0  0
  5  6  1  0  0  0
  6  7  1  0  0  0
  7  8  2  0  0  0
  8  9  1  0  0  0
  8 10  1  0  0  0
 10 11  1  0  0  0
 10 12  2  0  0  0
 12 13  1  0  0  0
 23 18  1  0  0  0
 13  3  1  0  0  0
 13  6  2  0  0  0
 16 17  1  0  0  0
  1  2  1  0  0  0
M  END
> <minimizedAffinity>
-11.13379

$$$$
OCNT-2309110


 25 27  0  0  0  0  0  0  0  0999 V2000
    1.4983   19.2259   19.9138 N   0  0  0  0  0  0  0  0  0  0  0  0
    0.9644   19.9378   20.4235 H   0  0  0  0  0  0  0  0  0  0  0  0
   -1.5548   18.8576   15.9776 C   0  0  0  0  0  0  0  0  0  0  0  0
   -0.8142   18.2188   17.1264 C   0  0  0  0  0  0  0  0  0  0  0  0
   -0.9435   16.9346   17.2913 N   0  0  0  0  0  0  0  0  0  0  0  0
   -0.2593   16.3826   18.3397 C   0  0  0  0  0  0  0  0  0  0  0  0
   -0.1530   15.0975   18.8104 C   0  0  0  0  0  0  0  0  0  0  0  0
   -0.9657   13.5610   18.1139 Br  0  0  0  0  0  0  0  0  0  0  0  0
    0.6895   15.1449   19.9359 C   0  0  0  0  0  0  0  0  0  0  0  0
    1.1269   14.0296   20.8116 C   0  0  0  0  0  0  0  0  0  0  0  0
    1.1029   16.3941   20.1854 N   0  0  0  0  0  0  0  0  0  0  0  0
    0.5362   17.1496   19.1934 N   0  0  0  0  0  0  0  0  0  0  0  0
    0.6722   18.5509   19.0133 C   0  0  0  0  0  0  0  0  0  0  0  0
    0.0098   19.1202   17.9908 C   0  0  0  0  0  0  0  0  0  0  0  0
    2.8940   19.5639   19.6878 C   0  0  0  0  0  0  0  0  0  0  0  0
    3.7833   18.7494   20.5852 C   0  0  0  0  0  0  0  0  0  0  0  0
    3.3854   17.4725   21.0089 C   0  0  0  0  0  0  0  0  0  0  0  0
    4.2144   16.7247   21.8373 C   0  0  0  0  0  0  0  0  0  0  0  0
    5.4201   17.2800   22.2230 C   0  0  0  0  0  0  0  0  0  0  0  0
    5.8376   18.5056   21.8432 N   0  0  0  0  0  0  0  0  0  0  0  0
    5.0201   19.2134   21.0304 C   0  0  0  0  0  0  0  0  0  0  0  0
    5.4070   20.4755   20.6273 O   0  0  0  0  0  0  0  0  0  0  0  0
    6.3647   21.1333   21.4664 C   0  0  0  0  0  0  0  0  0  0  0  0
    7.3349   21.9513   20.6172 C   0  0  0  0  0  0  0  0  0  0  0  0
    5.5708   22.0597   22.3856 C   0  0  0  0  0  0  0  0  0  0  0  0
  3  4  1  0  0  0
  4  5  2  0  0  0
  5  6  1  0  0  0
  6  7  2  0  0  0
  7  8  1  0  0  0
  7  9  1  0  0  0
  9 10  1  0  0  0
  9 11  2  0  0  0
 11 12  1  0  0  0
 12 13  1  0  0  0
 13  1  1  0  0  0
  1 15  1  0  0  0
 15 16  1  0  0  0
 16 17  1  0  0  0
 17 18  2  0  0  0
 18 19  1  0  0  0
 19 20  2  0  0  0
 20 21  1  0  0  0
 21 22  1  0  0  0
 22 23  1  0  0  0
 23 24  1  0  0  0
 23 25  1  0  0  0
 13 14  2  0  0  0
 14  4  1  0  0  0
 12  6  1  0  0  0
 21 16  2  0  0  0
  1  2  1  0  0  0
M  END
> <minimizedAffinity>
-8.90125

$$$$
OCNT-2309111


 23 26  0  0  0  0  0  0  0  0999 V2000
    0.5027   18.1076   18.8383 C   0  0  0  0  0  0  0  0  0  0  0  0
    1.3677   18.9984   18.3080 N   0  0  0  0  0  0  0  0  0  0  0  0
    2.6734   18.8738   18.6076 C   0  0  0  0  0  0  0  0  0  0  0  0
    3.1792   17.9140   19.4617 C   0  0  0  0  0  0  0  0  0  0  0  0
    2.2958   17.0159   20.0575 C   0  0  0  0  0  0  0  0  0  0  0  0
    0.9377   17.0750   19.6892 C   0  0  0  0  0  0  0  0  0  0  0  0
   -0.0170   16.0308   20.2050 C   0  0  0  0  0  0  0  0  0  0  0  0
    0.7109   14.7009   20.2796 C   0  0  0  0  0  0  0  0  0  0  0  0
    1.9156   14.8267   21.1946 C   0  0  0  0  0  0  0  0  0  0  0  0
    2.7459   16.0100   20.9759 N   0  0  0  0  0  0  0  0  0  0  0  0
    3.9337   16.0509   21.7397 C   0  0  0  0  0  0  0  0  0  0  0  0
    4.4485   15.0193   22.1749 O   0  0  0  0  0  0  0  0  0  0  0  0
    4.4707   17.3539   22.1303 C   0  0  0  0  0  0  0  0  0  0  0  0
    4.0710   18.1321   23.1950 C   0  0  0  0  0  0  0  0  0  0  0  0
    4.8570   19.2408   23.2368 O   0  0  0  0  0  0  0  0  0  0  0  0
    5.7272   19.0779   22.1920 C   0  0  0  0  0  0  0  0  0  0  0  0
    5.5380   17.9721   21.5021 N   0  0  0  0  0  0  0  0  0  0  0  0
    6.8443   20.1011   21.8335 C   0  0  0  0  0  0  0  0  0  0  0  0
    6.6560   21.5649   22.1389 C   0  0  0  0  0  0  0  0  0  0  0  0
    6.5986   21.0834   20.7168 C   0  0  0  0  0  0  0  0  0  0  0  0
   -1.0519   19.2531   17.4989 C   0  0  0  0  0  0  0  0  0  0  0  0
   -0.8758   18.2304   18.5341 N   0  0  0  0  0  0  0  0  0  0  0  0
   -1.4587   16.9375   18.1632 C   0  0  0  0  0  0  0  0  0  0  0  0
 21 22  1  0  0  0
 22 23  1  0  0  0
 22  1  1  0  0  0
  1  2  1  0  0  0
  2  3  2  0  0  0
  3  4  1  0  0  0
  4  5  2  0  0  0
  5  6  1  0  0  0
  6  7  1  0  0  0
  7  8  1  0  0  0
  8  9  1  0  0  0
  9 10  1  0  0  0
 10 11  1  0  0  0
 11 12  2  0  0  0
 11 13  1  0  0  0
 13 14  2  0  0  0
 14 15  1  0  0  0
 15 16  1  0  0  0
 16 18  1  0  0  0
 18 19  1  0  0  0
 19 20  1  0  0  0
 16 17  2  0  0  0
  6  1  2  0  0  0
 17 13  1  0  0  0
 10  5  1  0  0  0
 20 18  1  0  0  0
M  END
> <minimizedAffinity>
-7.27713

$$$$
OCNT-2309126


 25 27  0  0  0  0  0  0  0  0999 V2000
    1.6457   18.5893   18.3248 N   0  0  0  0  0  0  0  0  0  0  0  0
    1.9586   19.7107   19.0661 C   0  0  0  0  0  0  0  0  0  0  0  0
    1.1025   20.4136   19.5919 O   0  0  0  0  0  0  0  0  0  0  0  0
    2.3652   17.8980   18.1609 H   0  0  0  0  0  0  0  0  0  0  0  0
    0.2785   18.1223   18.2171 C   0  0  0  0  0  0  0  0  0  0  0  0
    0.6647   15.0218   20.1699 C   0  0  0  0  0  0  0  0  0  0  0  0
   -0.0856   14.0798   19.4855 C   0  0  0  0  0  0  0  0  0  0  0  0
   -0.7434   14.4754   18.3273 C   0  0  0  0  0  0  0  0  0  0  0  0
   -0.6237   15.7920   17.8947 C   0  0  0  0  0  0  0  0  0  0  0  0
    0.1613   16.6749   18.6343 C   0  0  0  0  0  0  0  0  0  0  0  0
    0.7961   16.3082   19.7785 N   0  0  0  0  0  0  0  0  0  0  0  0
    0.3812   14.1293   22.3138 C   0  0  0  0  0  0  0  0  0  0  0  0
    1.2925   14.5817   21.3185 O   0  0  0  0  0  0  0  0  0  0  0  0
    3.4589   19.9149   19.2189 C   0  0  0  0  0  0  0  0  0  0  0  0
    4.1130   19.1442   20.3954 C   0  0  0  0  0  0  0  0  0  0  0  0
    3.0291   18.4071   21.2269 C   0  0  0  0  0  0  0  0  0  0  0  0
    3.6865   17.1546   21.8087 C   0  0  0  0  0  0  0  0  0  0  0  0
    4.9421   16.9082   20.9808 C   0  0  0  0  0  0  0  0  0  0  0  0
    4.8808   17.9144   19.8394 C   0  0  0  0  0  0  0  0  0  0  0  0
    4.9859   20.0565   21.1538 N   0  0  0  0  0  0  0  0  0  0  0  0
    6.2050   19.5808   21.8058 C   0  0  0  0  0  0  0  0  0  0  0  0
    6.8853   20.7137   22.5958 C   0  0  0  0  0  0  0  0  0  0  0  0
    7.2987   21.8128   21.7733 O   0  0  0  0  0  0  0  0  0  0  0  0
    6.5009   21.9633   20.5939 C   0  0  0  0  0  0  0  0  0  0  0  0
    5.0540   21.4689   20.7595 C   0  0  0  0  0  0  0  0  0  0  0  0
 12 13  1  0  0  0
 13  6  1  0  0  0
  6  7  1  0  0  0
  7  8  2  0  0  0
  8  9  1  0  0  0
  9 10  2  0  0  0
 10  5  1  0  0  0
  5  1  1  0  0  0
  1  2  1  0  0  0
  2  3  2  0  0  0
  2 14  1  0  0  0
 14 15  1  0  0  0
 15 20  1  0  0  0
 20 21  1  0  0  0
 21 22  1  0  0  0
 22 23  1  0  0  0
 23 24  1  0  0  0
 24 25  1  0  0  0
 15 16  1  0  0  0
 16 17  1  0  0  0
 17 18  1  0  0  0
 18 19  1  0  0  0
 10 11  1  0  0  0
 11  6  2  0  0  0
 19 15  1  0  0  0
 25 20  1  0  0  0
  1  4  1  0  0  0
M  END
> <minimizedAffinity>
-8.01515

$$$$
OCNT-2309138


 22 24  0  0  0  0  0  0  0  0999 V2000
    3.3088   18.9894   20.1756 C   0  0  0  0  0  0  0  0  0  0  0  0
    2.1174   18.5083   20.4599 N   0  0  0  0  0  0  0  0  0  0  0  0
    1.3292   19.0121   19.4506 C   0  0  0  0  0  0  0  0  0  0  0  0
    1.9957   19.7253   18.5340 N   0  0  0  0  0  0  0  0  0  0  0  0
    3.3043   19.7205   19.0145 O   0  0  0  0  0  0  0  0  0  0  0  0
    5.4284   19.7173   21.2540 N   0  0  0  0  0  0  0  0  0  0  0  0
    6.4242   19.2534   22.0474 N   0  0  0  0  0  0  0  0  0  0  0  0
    6.0938   17.9781   22.2565 C   0  0  0  0  0  0  0  0  0  0  0  0
    4.8981   17.6232   21.6107 C   0  0  0  0  0  0  0  0  0  0  0  0
    4.1844   16.0860   21.6696 Cl  0  0  0  0  0  0  0  0  0  0  0  0
    4.4712   18.7695   20.9720 C   0  0  0  0  0  0  0  0  0  0  0  0
    6.9371   21.6352   20.8641 C   0  0  0  0  0  0  0  0  0  0  0  0
    5.5219   21.0903   20.7843 C   0  0  0  0  0  0  0  0  0  0  0  0
   -0.1244   18.7233   19.3416 C   0  0  0  0  0  0  0  0  0  0  0  0
   -0.2432   17.2792   18.9034 C   0  0  0  0  0  0  0  0  0  0  0  0
    0.0312   16.2530   19.8273 C   0  0  0  0  0  0  0  0  0  0  0  0
   -0.0830   14.9142   19.4590 C   0  0  0  0  0  0  0  0  0  0  0  0
   -0.4715   14.5846   18.1646 C   0  0  0  0  0  0  0  0  0  0  0  0
   -0.7493   15.5912   17.2363 C   0  0  0  0  0  0  0  0  0  0  0  0
   -0.6425   16.9385   17.5966 C   0  0  0  0  0  0  0  0  0  0  0  0
   -0.8863   17.9908   16.7545 O   0  0  0  0  0  0  0  0  0  0  0  0
   -2.1803   18.5779   16.7993 C   0  0  0  0  0  0  0  0  0  0  0  0
 12 13  1  0  0  0
 13  6  1  0  0  0
  6  7  1  0  0  0
  7  8  2  0  0  0
  8  9  1  0  0  0
  9 10  1  0  0  0
  9 11  2  0  0  0
 11  1  1  0  0  0
  1  2  2  0  0  0
  2  3  1  0  0  0
  3 14  1  0  0  0
 14 15  1  0  0  0
 15 16  2  0  0  0
 16 17  1  0  0  0
 17 18  2  0  0  0
 18 19  1  0  0  0
 19 20  2  0  0  0
 20 21  1  0  0  0
 21 22  1  0  0  0
  3  4  2  0  0  0
  4  5  1  0  0  0
 11  6  1  0  0  0
  5  1  1  0  0  0
 20 15  1  0  0  0
M  END
> <minimizedAffinity>
-9.47634

$$$$
OCNT-2309158


 26 29  0  0  0  0  0  0  0  0999 V2000
    1.2296   18.6543   19.3159 C   0  0  0  0  0  0  0  0  0  0  0  0
    0.7980   19.6856   19.8171 O   0  0  0  0  0  0  0  0  0  0  0  0
    2.5122   18.1495   19.4255 N   0  0  0  0  0  0  0  0  0  0  0  0
    2.7280   17.3431   18.8518 H   0  0  0  0  0  0  0  0  0  0  0  0
    3.5741   18.6612   20.1992 C   0  0  0  0  0  0  0  0  0  0  0  0
    3.7375   18.1321   21.4868 C   0  0  0  0  0  0  0  0  0  0  0  0
    4.7557   18.5924   22.3269 C   0  0  0  0  0  0  0  0  0  0  0  0
    5.6367   19.5790   21.8804 C   0  0  0  0  0  0  0  0  0  0  0  0
    6.6790   20.1667   22.7890 C   0  0  0  0  0  0  0  0  0  0  0  0
    7.8792   20.6639   22.0007 C   0  0  0  0  0  0  0  0  0  0  0  0
    7.4699   21.5046   20.8132 C   0  0  0  0  0  0  0  0  0  0  0  0
    8.1585   22.4355   20.4012 O   0  0  0  0  0  0  0  0  0  0  0  0
    6.3404   21.1090   20.1479 N   0  0  0  0  0  0  0  0  0  0  0  0
    5.4757   20.1042   20.5954 C   0  0  0  0  0  0  0  0  0  0  0  0
    4.4465   19.6596   19.7618 C   0  0  0  0  0  0  0  0  0  0  0  0
    6.1470   21.5877   19.2766 H   0  0  0  0  0  0  0  0  0  0  0  0
   -1.5182   13.4511   17.4408 C   0  0  0  0  0  0  0  0  0  0  0  0
   -0.7637   14.4888   18.1091 N   0  0  0  0  0  0  0  0  0  0  0  0
   -0.0058   14.2998   19.2322 C   0  0  0  0  0  0  0  0  0  0  0  0
    0.5377   15.5137   19.5825 C   0  0  0  0  0  0  0  0  0  0  0  0
    0.1154   16.4825   18.6230 C   0  0  0  0  0  0  0  0  0  0  0  0
    0.3310   17.8696   18.4344 C   0  0  0  0  0  0  0  0  0  0  0  0
   -0.3252   18.5418   17.3903 C   0  0  0  0  0  0  0  0  0  0  0  0
   -1.1549   17.8498   16.5140 C   0  0  0  0  0  0  0  0  0  0  0  0
   -1.3597   16.4755   16.6577 C   0  0  0  0  0  0  0  0  0  0  0  0
   -0.7226   15.8128   17.7206 C   0  0  0  0  0  0  0  0  0  0  0  0
 17 18  1  0  0  0
 18 19  1  0  0  0
 19 20  2  0  0  0
 20 21  1  0  0  0
 21 22  2  0  0  0
 22  1  1  0  0  0
  1  2  2  0  0  0
  1  3  1  0  0  0
  3  5  1  0  0  0
  5  6  1  0  0  0
  6  7  2  0  0  0
  7  8  1  0  0  0
  8  9  1  0  0  0
  9 10  1  0  0  0
 10 11  1  0  0  0
 11 12  2  0  0  0
 11 13  1  0  0  0
 13 14  1  0  0  0
 14 15  1  0  0  0
 22 23  1  0  0  0
 23 24  2  0  0  0
 24 25  1  0  0  0
 25 26  2  0  0  0
 26 18  1  0  0  0
 26 21  1  0  0  0
 15  5  2  0  0  0
 14  8  2  0  0  0
  3  4  1  0  0  0
 13 16  1  0  0  0
M  END
> <minimizedAffinity>
-7.07450

$$$$
OCNT-2309179


 26 28  0  0  0  0  0  0  0  0999 V2000
    2.1395   14.8530   22.2467 N   0  0  0  0  0  0  0  0  0  0  0  0
    1.9220   15.4237   23.0583 H   0  0  0  0  0  0  0  0  0  0  0  0
    0.0733   16.1808   18.8886 C   0  0  0  0  0  0  0  0  0  0  0  0
   -0.1346   14.8880   19.3529 C   0  0  0  0  0  0  0  0  0  0  0  0
    0.5622   14.4590   20.4824 C   0  0  0  0  0  0  0  0  0  0  0  0
    1.4297   15.3358   21.1366 C   0  0  0  0  0  0  0  0  0  0  0  0
    1.6251   16.5969   20.6956 N   0  0  0  0  0  0  0  0  0  0  0  0
    0.9339   16.9996   19.5997 C   0  0  0  0  0  0  0  0  0  0  0  0
   -1.8865   18.4565   16.5718 C   0  0  0  0  0  0  0  0  0  0  0  0
   -1.0400   18.0251   17.6716 N   0  0  0  0  0  0  0  0  0  0  0  0
   -0.3958   19.0896   18.4317 C   0  0  0  0  0  0  0  0  0  0  0  0
   -0.6656   16.6830   17.7179 C   0  0  0  0  0  0  0  0  0  0  0  0
   -0.9345   15.8713   16.8352 O   0  0  0  0  0  0  0  0  0  0  0  0
    3.5767   14.7469   22.0368 C   0  0  0  0  0  0  0  0  0  0  0  0
    4.1325   16.1304   21.7836 C   0  0  0  0  0  0  0  0  0  0  0  0
    4.5983   16.5029   20.5187 C   0  0  0  0  0  0  0  0  0  0  0  0
    5.1029   17.7909   20.2915 C   0  0  0  0  0  0  0  0  0  0  0  0
    5.1486   18.7391   21.3283 C   0  0  0  0  0  0  0  0  0  0  0  0
    4.6741   18.3585   22.5893 C   0  0  0  0  0  0  0  0  0  0  0  0
    4.6717   19.1949   23.6352 F   0  0  0  0  0  0  0  0  0  0  0  0
    4.1725   17.0754   22.8149 C   0  0  0  0  0  0  0  0  0  0  0  0
    5.6653   20.0462   21.0847 N   0  0  0  0  0  0  0  0  0  0  0  0
    6.9098   20.5490   21.4018 C   0  0  0  0  0  0  0  0  0  0  0  0
    6.9308   21.8514   20.9633 C   0  0  0  0  0  0  0  0  0  0  0  0
    5.7444   22.1841   20.3833 N   0  0  0  0  0  0  0  0  0  0  0  0
    5.0105   21.0963   20.4679 C   0  0  0  0  0  0  0  0  0  0  0  0
  9 10  1  0  0  0
 10 11  1  0  0  0
 10 12  1  0  0  0
 12 13  2  0  0  0
 12  3  1  0  0  0
  3  4  2  0  0  0
  4  5  1  0  0  0
  5  6  2  0  0  0
  6  1  1  0  0  0
  1 14  1  0  0  0
 14 15  1  0  0  0
 15 16  1  0  0  0
 16 17  2  0  0  0
 17 18  1  0  0  0
 18 22  1  0  0  0
 22 23  1  0  0  0
 23 24  2  0  0  0
 24 25  1  0  0  0
 25 26  2  0  0  0
 18 19  2  0  0  0
 19 20  1  0  0  0
 19 21  1  0  0  0
  6  7  1  0  0  0
  7  8  2  0  0  0
  8  3  1  0  0  0
 21 15  2  0  0  0
 26 22  1  0  0  0
  1  2  1  0  0  0
M  END
> <minimizedAffinity>
-7.80644

$$$$
OCNT-2309204


 25 28  0  0  0  0  0  0  0  0999 V2000
    3.1013   16.7593   21.4240 N   0  0  0  0  0  0  0  0  0  0  0  0
    3.3647   18.0994   21.4249 C   0  0  0  0  0  0  0  0  0  0  0  0
    4.7388   18.1653   21.3662 C   0  0  0  0  0  0  0  0  0  0  0  0
    5.2479   16.8955   21.2913 N   0  0  0  0  0  0  0  0  0  0  0  0
    4.2342   16.0402   21.3133 N   0  0  0  0  0  0  0  0  0  0  0  0
    0.1756   17.5939   18.3335 C   0  0  0  0  0  0  0  0  0  0  0  0
   -0.4338   16.4694   17.7806 C   0  0  0  0  0  0  0  0  0  0  0  0
   -0.3378   15.2347   18.4281 C   0  0  0  0  0  0  0  0  0  0  0  0
    0.3670   15.1176   19.6259 C   0  0  0  0  0  0  0  0  0  0  0  0
    0.3775   13.8716   20.1944 O   0  0  0  0  0  0  0  0  0  0  0  0
    0.7124   13.8636   21.5836 C   0  0  0  0  0  0  0  0  0  0  0  0
    2.0083   14.6067   21.8330 C   0  0  0  0  0  0  0  0  0  0  0  0
    1.8105   16.0768   21.4599 C   0  0  0  0  0  0  0  0  0  0  0  0
    1.0278   16.2223   20.1719 C   0  0  0  0  0  0  0  0  0  0  0  0
    0.8975   17.4655   19.5257 C   0  0  0  0  0  0  0  0  0  0  0  0
    0.6749   19.8997   18.6330 C   0  0  0  0  0  0  0  0  0  0  0  0
    0.1457   18.8597   17.8198 O   0  0  0  0  0  0  0  0  0  0  0  0
    5.5380   19.3736   21.3592 C   0  0  0  0  0  0  0  0  0  0  0  0
    6.7134   19.4391   22.1265 C   0  0  0  0  0  0  0  0  0  0  0  0
    7.4940   20.5987   22.1390 C   0  0  0  0  0  0  0  0  0  0  0  0
    7.1150   21.7045   21.3807 C   0  0  0  0  0  0  0  0  0  0  0  0
    5.9550   21.6536   20.6091 C   0  0  0  0  0  0  0  0  0  0  0  0
    5.1615   20.5010   20.6125 C   0  0  0  0  0  0  0  0  0  0  0  0
    4.0663   20.4603   19.7861 O   0  0  0  0  0  0  0  0  0  0  0  0
    3.3988   21.7219   19.7740 C   0  0  0  0  0  0  0  0  0  0  0  0
 16 17  1  0  0  0
 17  6  1  0  0  0
  6  7  1  0  0  0
  7  8  2  0  0  0
  8  9  1  0  0  0
  9 10  1  0  0  0
 10 11  1  0  0  0
 11 12  1  0  0  0
 12 13  1  0  0  0
 13  1  1  0  0  0
  1  2  1  0  0  0
  2  3  2  0  0  0
  3 18  1  0  0  0
 18 19  2  0  0  0
 19 20  1  0  0  0
 20 21  2  0  0  0
 21 22  1  0  0  0
 22 23  2  0  0  0
 23 24  1  0  0  0
 24 25  1  0  0  0
  3  4  1  0  0  0
  4  5  2  0  0  0
 13 14  1  0  0  0
 14 15  1  0  0  0
 15  6  2  0  0  0
 14  9  2  0  0  0
  5  1  1  0  0  0
 23 18  1  0  0  0
M  END
> <minimizedAffinity>
-10.29218

$$$$
OCNT-2309232


 25 28  0  0  0  0  0  0  0  0999 V2000
    0.1617   17.6835   19.6248 N   0  0  0  0  0  0  0  0  0  0  0  0
   -0.4261   18.0199   20.3912 H   0  0  0  0  0  0  0  0  0  0  0  0
   -1.4877   14.1059   16.6513 C   0  0  0  0  0  0  0  0  0  0  0  0
   -0.8925   14.8512   17.7346 N   0  0  0  0  0  0  0  0  0  0  0  0
   -0.8429   16.2082   17.8631 C   0  0  0  0  0  0  0  0  0  0  0  0
   -0.1698   16.4612   19.0343 C   0  0  0  0  0  0  0  0  0  0  0  0
    0.1392   15.1710   19.5455 C   0  0  0  0  0  0  0  0  0  0  0  0
   -0.3131   14.1899   18.7531 N   0  0  0  0  0  0  0  0  0  0  0  0
    0.8939   14.8927   20.8846 C   0  0  0  0  0  0  0  0  0  0  0  0
    0.3395   14.3778   22.0395 C   0  0  0  0  0  0  0  0  0  0  0  0
    1.3835   14.2983   22.9921 C   0  0  0  0  0  0  0  0  0  0  0  0
    2.5107   14.7709   22.3630 C   0  0  0  0  0  0  0  0  0  0  0  0
    2.2263   15.1373   21.0867 O   0  0  0  0  0  0  0  0  0  0  0  0
    1.0314   18.8937   18.8682 S   0  0  0  0  0  0  0  0  0  0  0  0
    0.3910   20.1732   19.0765 O   0  0  0  0  0  0  0  0  0  0  0  0
    1.3789   18.4079   17.5511 O   0  0  0  0  0  0  0  0  0  0  0  0
    2.5467   19.0321   19.6495 C   0  0  0  0  0  0  0  0  0  0  0  0
    3.4485   20.0719   19.5920 C   0  0  0  0  0  0  0  0  0  0  0  0
    4.4855   19.6949   20.3995 N   0  0  0  0  0  0  0  0  0  0  0  0
    4.3383   18.4598   20.9189 N   0  0  0  0  0  0  0  0  0  0  0  0
    3.1342   18.0727   20.4836 C   0  0  0  0  0  0  0  0  0  0  0  0
    5.7129   20.4942   20.5747 C   0  0  0  0  0  0  0  0  0  0  0  0
    5.4797   21.8336   21.3213 C   0  0  0  0  0  0  0  0  0  0  0  0
    6.8261   21.5792   22.0309 C   0  0  0  0  0  0  0  0  0  0  0  0
    6.5755   20.0750   21.7938 C   0  0  0  0  0  0  0  0  0  0  0  0
  3  4  1  0  0  0
  4  5  1  0  0  0
  5  6  2  0  0  0
  6  1  1  0  0  0
  1 14  1  0  0  0
 14 15  2  0  0  0
 14 16  2  0  0  0
 14 17  1  0  0  0
 17 18  2  0  0  0
 18 19  1  0  0  0
 19 22  1  0  0  0
 22 23  1  0  0  0
 23 24  1  0  0  0
 24 25  1  0  0  0
 19 20  1  0  0  0
 20 21  2  0  0  0
  6  7  1  0  0  0
  7  9  1  0  0  0
  9 10  2  0  0  0
 10 11  1  0  0  0
 11 12  2  0  0  0
 12 13  1  0  0  0
  7  8  2  0  0  0
  8  4  1  0  0  0
 21 17  1  0  0  0
 13  9  1  0  0  0
 25 22  1  0  0  0
  1  2  1  0  0  0
M  END
> <minimizedAffinity>
-8.10160

$$$$
OCNT-2309238


 22 23  0  0  0  0  0  0  0  0999 V2000
    1.4697   15.4096   20.7943 N   0  0  0  0  0  0  0  0  0  0  0  0
    2.7252   15.4434   21.3514 C   0  0  0  0  0  0  0  0  0  0  0  0
    3.3033   14.4465   21.7731 O   0  0  0  0  0  0  0  0  0  0  0  0
    3.2850   16.7149   21.4023 N   0  0  0  0  0  0  0  0  0  0  0  0
    4.5812   16.8642   22.0543 C   0  0  0  0  0  0  0  0  0  0  0  0
    4.7751   18.2564   22.6473 C   0  0  0  0  0  0  0  0  0  0  0  0
    4.5083   19.3828   21.6362 C   0  0  0  0  0  0  0  0  0  0  0  0
    3.8356   18.8963   20.3475 C   0  0  0  0  0  0  0  0  0  0  0  0
    2.7614   17.8604   20.6573 C   0  0  0  0  0  0  0  0  0  0  0  0
    0.9047   16.1818   21.1201 H   0  0  0  0  0  0  0  0  0  0  0  0
    5.7036   20.2534   21.3581 C   0  0  0  0  0  0  0  0  0  0  0  0
    7.0175   20.0551   21.7479 C   0  0  0  0  0  0  0  0  0  0  0  0
    7.8295   21.0662   21.3180 N   0  0  0  0  0  0  0  0  0  0  0  0
    7.0383   21.8839   20.6669 C   0  0  0  0  0  0  0  0  0  0  0  0
    5.7427   21.4417   20.6611 N   0  0  0  0  0  0  0  0  0  0  0  0
    4.6645   22.1420   20.0090 C   0  0  0  0  0  0  0  0  0  0  0  0
    0.7117   14.1649   20.7508 C   0  0  0  0  0  0  0  0  0  0  0  0
   -0.3280   15.2128   18.7091 C   0  0  0  0  0  0  0  0  0  0  0  0
   -0.0602   14.1331   19.4565 C   0  0  0  0  0  0  0  0  0  0  0  0
   -0.2593   14.0931   21.9469 C   0  0  0  0  0  0  0  0  0  0  0  0
    0.4454   14.4393   23.1495 O   0  0  0  0  0  0  0  0  0  0  0  0
   -0.4209   14.4397   24.2773 C   0  0  0  0  0  0  0  0  0  0  0  0
 18 19  2  0  0  0
 19 17  1  0  0  0
 17 20  1  0  0  0
 20 21  1  0  0  0
 21 22  1  0  0  0
 17  1  1  0  0  0
  1  2  1  0  0  0
  2  3  2  0  0  0
  2  4  1  0  0  0
  4  5  1  0  0  0
  5  6  1  0  0  0
  6  7  1  0  0  0
  7 11  1  0  0  0
 11 12  2  0  0  0
 12 13  1  0  0  0
 13 14  2  0  0  0
 14 15  1  0  0  0
 15 16  1  0  0  0
  7  8  1  0  0  0
  8  9  1  0  0  0
  9  4  1  0  0  0
 15 11  1  0  0  0
  1 10  1  0  0  0
M  END
> <minimizedAffinity>
-7.40188

$$$$
OCNT-2309242


 30 32  0  0  0  0  0  0  0  0999 V2000
    4.6602   17.4089   23.1252 N   0  0  0  0  0  0  0  0  0  0  0  0
    3.9939   17.1279   21.9622 C   0  0  0  0  0  0  0  0  0  0  0  0
    4.1501   17.7391   20.9142 O   0  0  0  0  0  0  0  0  0  0  0  0
    3.1497   16.0564   22.1002 N   0  0  0  0  0  0  0  0  0  0  0  0
    4.3196   16.9845   23.9739 H   0  0  0  0  0  0  0  0  0  0  0  0
    2.7910   15.8878   23.0276 H   0  0  0  0  0  0  0  0  0  0  0  0
    8.1571   21.9885   20.2451 C   0  0  0  0  0  0  0  0  0  0  0  0
    6.6905   21.7239   20.4764 C   0  0  0  0  0  0  0  0  0  0  0  0
    5.8390   22.4152   19.9174 O   0  0  0  0  0  0  0  0  0  0  0  0
    6.3638   20.6779   21.3296 N   0  0  0  0  0  0  0  0  0  0  0  0
    4.9542   20.4423   21.6357 C   0  0  0  0  0  0  0  0  0  0  0  0
    4.7715   19.8723   23.0365 C   0  0  0  0  0  0  0  0  0  0  0  0
    5.5477   18.5628   23.2332 C   0  0  0  0  0  0  0  0  0  0  0  0
    6.7299   18.4189   22.2642 C   0  0  0  0  0  0  0  0  0  0  0  0
    7.3443   19.7696   21.9260 C   0  0  0  0  0  0  0  0  0  0  0  0
    2.3043   15.6667   20.9856 C   0  0  0  0  0  0  0  0  0  0  0  0
    1.1254   14.8077   21.4224 C   0  0  0  0  0  0  0  0  0  0  0  0
    0.1832   14.9308   20.2333 C   0  0  0  0  0  0  0  0  0  0  0  0
    0.3004   16.3466   19.8439 N   0  0  0  0  0  0  0  0  0  0  0  0
    1.6306   16.8490   20.2560 C   0  0  0  0  0  0  0  0  0  0  0  0
   -0.0940   16.6085   18.5283 C   0  0  0  0  0  0  0  0  0  0  0  0
   -0.5774   15.5929   17.6841 C   0  0  0  0  0  0  0  0  0  0  0  0
   -0.9849   15.8665   16.3775 C   0  0  0  0  0  0  0  0  0  0  0  0
   -0.9204   17.1653   15.8894 C   0  0  0  0  0  0  0  0  0  0  0  0
   -0.4482   18.1878   16.7102 C   0  0  0  0  0  0  0  0  0  0  0  0
   -0.0327   17.9240   18.0314 C   0  0  0  0  0  0  0  0  0  0  0  0
    0.4809   19.0531   18.8914 C   0  0  0  0  0  0  0  0  0  0  0  0
    1.8165   18.9794   19.1609 F   0  0  0  0  0  0  0  0  0  0  0  0
    0.3103   20.2812   18.3092 F   0  0  0  0  0  0  0  0  0  0  0  0
   -0.1506   19.1521   20.0979 F   0  0  0  0  0  0  0  0  0  0  0  0
  7  8  1  0  0  0
  8  9  2  0  0  0
  8 10  1  0  0  0
 10 11  1  0  0  0
 11 12  1  0  0  0
 12 13  1  0  0  0
 13  1  1  0  0  0
  1  2  1  0  0  0
  2  3  2  0  0  0
  2  4  1  0  0  0
  4 16  1  0  0  0
 16 17  1  0  0  0
 17 18  1  0  0  0
 18 19  1  0  0  0
 19 21  1  0  0  0
 21 22  2  0  0  0
 22 23  1  0  0  0
 23 24  2  0  0  0
 24 25  1  0  0  0
 25 26  2  0  0  0
 26 27  1  0  0  0
 27 28  1  0  0  0
 27 29  1  0  0  0
 27 30  1  0  0  0
 19 20  1  0  0  0
 13 14  1  0  0  0
 14 15  1  0  0  0
 15 10  1  0  0  0
 20 16  1  0  0  0
 26 21  1  0  0  0
  1  5  1  0  0  0
  4  6  1  0  0  0
M  END
> <minimizedAffinity>
-6.81285

$$$$
OCNT-2309243


 24 26  0  0  0  0  0  0  0  0999 V2000
    1.0840   14.5129   20.3091 C   0  0  0  0  0  0  0  0  0  0  0  0
   -0.3625   14.1675   19.9166 C   0  0  0  0  0  0  0  0  0  0  0  0
   -0.6950   14.6581   18.5157 C   0  0  0  0  0  0  0  0  0  0  0  0
   -0.5492   16.1721   18.4308 C   0  0  0  0  0  0  0  0  0  0  0  0
    0.6282   16.6861   19.1242 N   0  0  0  0  0  0  0  0  0  0  0  0
    0.8538   18.0605   18.9966 C   0  0  0  0  0  0  0  0  0  0  0  0
    0.1054   18.8106   18.3714 O   0  0  0  0  0  0  0  0  0  0  0  0
    1.6505   15.7112   19.5240 C   0  0  0  0  0  0  0  0  0  0  0  0
    2.0460   18.6662   19.6216 C   0  0  0  0  0  0  0  0  0  0  0  0
    2.8032   17.9062   20.5133 C   0  0  0  0  0  0  0  0  0  0  0  0
    3.9545   18.4509   21.0924 C   0  0  0  0  0  0  0  0  0  0  0  0
    4.3637   19.7564   20.7704 C   0  0  0  0  0  0  0  0  0  0  0  0
    3.6062   20.5006   19.8510 C   0  0  0  0  0  0  0  0  0  0  0  0
    2.4578   19.9516   19.2706 C   0  0  0  0  0  0  0  0  0  0  0  0
    5.5343   20.3144   21.3645 N   0  0  0  0  0  0  0  0  0  0  0  0
    6.5267   19.6460   22.0526 C   0  0  0  0  0  0  0  0  0  0  0  0
    7.4391   20.5996   22.4368 C   0  0  0  0  0  0  0  0  0  0  0  0
    7.0525   21.8373   22.0151 N   0  0  0  0  0  0  0  0  0  0  0  0
    5.9172   21.6404   21.3805 C   0  0  0  0  0  0  0  0  0  0  0  0
    0.0153   14.4813   23.9564 C   0  0  0  0  0  0  0  0  0  0  0  0
    0.0972   14.2959   22.5286 N   0  0  0  0  0  0  0  0  0  0  0  0
    1.2076   14.7113   21.8195 C   0  0  0  0  0  0  0  0  0  0  0  0
    2.2074   15.1620   22.3677 O   0  0  0  0  0  0  0  0  0  0  0  0
   -0.7538   14.0724   22.0308 H   0  0  0  0  0  0  0  0  0  0  0  0
 20 21  1  0  0  0
 21 22  1  0  0  0
 22 23  2  0  0  0
 22  1  1  0  0  0
  1  2  1  0  0  0
  2  3  1  0  0  0
  3  4  1  0  0  0
  4  5  1  0  0  0
  5  6  1  0  0  0
  6  7  2  0  0  0
  6  9  1  0  0  0
  9 10  1  0  0  0
 10 11  2  0  0  0
 11 12  1  0  0  0
 12 15  1  0  0  0
 15 16  1  0  0  0
 16 17  2  0  0  0
 17 18  1  0  0  0
 18 19  2  0  0  0
 12 13  2  0  0  0
 13 14  1  0  0  0
  5  8  1  0  0  0
  8  1  1  0  0  0
 14  9  2  0  0  0
 19 15  1  0  0  0
 21 24  1  0  0  0
M  END
> <minimizedAffinity>
-7.43200

$$$$
OCNT-2309246


 24 28  0  0  0  0  0  0  0  0999 V2000
    3.6319   17.6168   23.2388 O   0  0  0  0  0  0  0  0  0  0  0  0
    3.9836   17.9411   22.1058 C   0  0  0  0  0  0  0  0  0  0  0  0
    3.2308   17.6403   20.9591 N   0  0  0  0  0  0  0  0  0  0  0  0
    3.2801   18.4833   19.7591 C   0  0  0  0  0  0  0  0  0  0  0  0
    1.8935   18.7400   19.1882 C   0  0  0  0  0  0  0  0  0  0  0  0
    1.2354   17.4840   18.8489 N   0  0  0  0  0  0  0  0  0  0  0  0
    1.3612   16.4546   19.8229 C   0  0  0  0  0  0  0  0  0  0  0  0
    0.5493   15.3049   19.7391 C   0  0  0  0  0  0  0  0  0  0  0  0
    0.6204   14.2824   20.6850 C   0  0  0  0  0  0  0  0  0  0  0  0
    1.5211   14.3785   21.7335 C   0  0  0  0  0  0  0  0  0  0  0  0
    2.3592   15.4903   21.8300 C   0  0  0  0  0  0  0  0  0  0  0  0
    2.3025   16.5371   20.8912 C   0  0  0  0  0  0  0  0  0  0  0  0
    5.2106   18.6830   21.9156 C   0  0  0  0  0  0  0  0  0  0  0  0
    6.5015   18.3780   22.3113 C   0  0  0  0  0  0  0  0  0  0  0  0
    7.3933   19.3482   21.9451 N   0  0  0  0  0  0  0  0  0  0  0  0
    6.6658   20.2818   21.3724 C   0  0  0  0  0  0  0  0  0  0  0  0
    7.0377   21.5349   20.8071 C   0  0  0  0  0  0  0  0  0  0  0  0
    6.0965   22.3345   20.2703 C   0  0  0  0  0  0  0  0  0  0  0  0
    4.6956   21.9488   20.2521 C   0  0  0  0  0  0  0  0  0  0  0  0
    4.3375   20.7672   20.7825 C   0  0  0  0  0  0  0  0  0  0  0  0
    5.3141   19.9376   21.3417 N   0  0  0  0  0  0  0  0  0  0  0  0
    0.1399   17.5044   17.8654 C   0  0  0  0  0  0  0  0  0  0  0  0
   -0.1798   18.6907   16.9918 C   0  0  0  0  0  0  0  0  0  0  0  0
   -1.1091   18.3145   18.1027 C   0  0  0  0  0  0  0  0  0  0  0  0
  1  2  2  0  0  0
  2 13  1  0  0  0
 13 14  2  0  0  0
 14 15  1  0  0  0
 15 16  2  0  0  0
 16 17  1  0  0  0
 17 18  2  0  0  0
 18 19  1  0  0  0
 19 20  2  0  0  0
 20 21  1  0  0  0
  2  3  1  0  0  0
  3  4  1  0  0  0
  4  5  1  0  0  0
  5  6  1  0  0  0
  6 22  1  0  0  0
 22 23  1  0  0  0
 23 24  1  0  0  0
  6  7  1  0  0  0
  7  8  2  0  0  0
  8  9  1  0  0  0
  9 10  2  0  0  0
 10 11  1  0  0  0
 11 12  2  0  0  0
 21 13  1  0  0  0
 12  3  1  0  0  0
 21 16  1  0  0  0
 24 22  1  0  0  0
 12  7  1  0  0  0
M  END
> <minimizedAffinity>
-11.01889

$$$$
OCNT-2309265


 25 28  0  0  0  0  0  0  0  0999 V2000
    3.6682   21.2326   19.3402 N   0  0  0  0  0  0  0  0  0  0  0  0
    4.3275   19.9674   18.9607 C   0  0  0  0  0  0  0  0  0  0  0  0
    3.5952   18.6838   19.4169 C   0  0  0  0  0  0  0  0  0  0  0  0
    2.2047   18.6869   18.9370 N   0  0  0  0  0  0  0  0  0  0  0  0
    1.5057   19.9841   18.9954 C   0  0  0  0  0  0  0  0  0  0  0  0
    2.2937   21.0290   19.8229 C   0  0  0  0  0  0  0  0  0  0  0  0
    1.4618   17.5447   19.2267 C   0  0  0  0  0  0  0  0  0  0  0  0
    0.3160   17.2971   18.5318 N   0  0  0  0  0  0  0  0  0  0  0  0
   -0.4049   16.1919   18.8078 C   0  0  0  0  0  0  0  0  0  0  0  0
   -0.1532   15.2470   19.7260 N   0  0  0  0  0  0  0  0  0  0  0  0
    0.9617   15.5322   20.4195 C   0  0  0  0  0  0  0  0  0  0  0  0
    1.7926   16.6256   20.2406 C   0  0  0  0  0  0  0  0  0  0  0  0
    2.7806   16.4703   21.2382 C   0  0  0  0  0  0  0  0  0  0  0  0
    2.6262   15.3576   21.9648 N   0  0  0  0  0  0  0  0  0  0  0  0
    1.5032   14.8087   21.4476 N   0  0  0  0  0  0  0  0  0  0  0  0
    0.9978   13.5776   22.0008 C   0  0  0  0  0  0  0  0  0  0  0  0
    4.4796   22.1033   20.1981 C   0  0  0  0  0  0  0  0  0  0  0  0
    4.5203   21.7490   21.6971 C   0  0  0  0  0  0  0  0  0  0  0  0
    7.4927   21.6044   21.0972 C   0  0  0  0  0  0  0  0  0  0  0  0
    6.7322   20.4570   21.6914 C   0  0  0  0  0  0  0  0  0  0  0  0
    7.3971   19.2646   21.9780 C   0  0  0  0  0  0  0  0  0  0  0  0
    6.8122   18.1662   22.5046 N   0  0  0  0  0  0  0  0  0  0  0  0
    5.4928   18.2515   22.7593 C   0  0  0  0  0  0  0  0  0  0  0  0
    4.7330   19.3823   22.5087 C   0  0  0  0  0  0  0  0  0  0  0  0
    5.3529   20.5118   21.9568 C   0  0  0  0  0  0  0  0  0  0  0  0
 19 20  1  0  0  0
 20 21  2  0  0  0
 21 22  1  0  0  0
 22 23  2  0  0  0
 23 24  1  0  0  0
 24 25  2  0  0  0
 25 18  1  0  0  0
 18 17  1  0  0  0
 17  1  1  0  0  0
  1  2  1  0  0  0
  2  3  1  0  0  0
  3  4  1  0  0  0
  4  7  1  0  0  0
  7  8  1  0  0  0
  8  9  2  0  0  0
  9 10  1  0  0  0
 10 11  2  0  0  0
 11 12  1  0  0  0
 12 13  1  0  0  0
 13 14  2  0  0  0
 14 15  1  0  0  0
 15 16  1  0  0  0
  4  5  1  0  0  0
  5  6  1  0  0  0
 25 20  1  0  0  0
  6  1  1  0  0  0
 12  7  2  0  0  0
 15 11  1  0  0  0
M  END
> <minimizedAffinity>
-6.62281

$$$$
OCNT-2309277


 23 25  0  0  0  0  0  0  0  0999 V2000
    3.8576   15.3892   21.7645 O   0  0  0  0  0  0  0  0  0  0  0  0
    3.3478   16.4595   21.4326 C   0  0  0  0  0  0  0  0  0  0  0  0
    2.0067   16.5220   21.1172 N   0  0  0  0  0  0  0  0  0  0  0  0
    1.6385   17.3771   20.7241 H   0  0  0  0  0  0  0  0  0  0  0  0
    4.0893   17.7145   21.3411 C   0  0  0  0  0  0  0  0  0  0  0  0
    3.8865   18.8637   20.5972 C   0  0  0  0  0  0  0  0  0  0  0  0
    2.5980   19.1372   19.4835 Cl  0  0  0  0  0  0  0  0  0  0  0  0
    4.8864   19.8811   20.8232 C   0  0  0  0  0  0  0  0  0  0  0  0
    5.0445   21.1820   20.2732 C   0  0  0  0  0  0  0  0  0  0  0  0
    6.1142   21.9974   20.6551 C   0  0  0  0  0  0  0  0  0  0  0  0
    7.0408   21.5440   21.5811 C   0  0  0  0  0  0  0  0  0  0  0  0
    6.9162   20.2716   22.1407 C   0  0  0  0  0  0  0  0  0  0  0  0
    5.8358   19.4542   21.7518 C   0  0  0  0  0  0  0  0  0  0  0  0
    5.4988   17.8692   22.3103 S   0  0  0  0  0  0  0  0  0  0  0  0
    1.1823   15.3408   21.0148 C   0  0  0  0  0  0  0  0  0  0  0  0
    0.4397   15.3245   19.7042 C   0  0  0  0  0  0  0  0  0  0  0  0
   -0.1192   14.1360   19.2107 C   0  0  0  0  0  0  0  0  0  0  0  0
   -0.8294   14.1345   18.0081 C   0  0  0  0  0  0  0  0  0  0  0  0
   -0.9942   15.3199   17.2937 C   0  0  0  0  0  0  0  0  0  0  0  0
   -0.4511   16.5001   17.7857 C   0  0  0  0  0  0  0  0  0  0  0  0
   -0.6424   17.6399   17.0621 O   0  0  0  0  0  0  0  0  0  0  0  0
    0.2612   16.5143   18.9814 C   0  0  0  0  0  0  0  0  0  0  0  0
   -0.2252   18.3778   17.5376 H   0  0  0  0  0  0  0  0  0  0  0  0
  1  2  2  0  0  0
  2  3  1  0  0  0
  3 15  1  0  0  0
 15 16  1  0  0  0
 16 17  2  0  0  0
 17 18  1  0  0  0
 18 19  2  0  0  0
 19 20  1  0  0  0
 20 21  1  0  0  0
 20 22  2  0  0  0
  2  5  1  0  0  0
  5  6  2  0  0  0
  6  7  1  0  0  0
  6  8  1  0  0  0
  8  9  2  0  0  0
  9 10  1  0  0  0
 10 11  2  0  0  0
 11 12  1  0  0  0
 12 13  2  0  0  0
 13 14  1  0  0  0
 22 16  1  0  0  0
 14  5  1  0  0  0
 13  8  1  0  0  0
  3  4  1  0  0  0
 21 23  1  0  0  0
M  END
> <minimizedAffinity>
-11.34945

$$$$
OCNT-2309286


 28 30  0  0  0  0  0  0  0  0999 V2000
    4.2989   15.8088   21.6697 C   0  0  0  0  0  0  0  0  0  0  0  0
    4.3871   18.0941   20.8892 N   0  0  0  0  0  0  0  0  0  0  0  0
    5.0870   17.1264   21.5842 C   0  0  0  0  0  0  0  0  0  0  0  0
    6.1854   17.2507   22.1172 O   0  0  0  0  0  0  0  0  0  0  0  0
    3.4984   17.7900   20.4864 H   0  0  0  0  0  0  0  0  0  0  0  0
    3.7409   20.2528   20.0519 C   0  0  0  0  0  0  0  0  0  0  0  0
    4.0214   21.5939   19.7758 C   0  0  0  0  0  0  0  0  0  0  0  0
    5.2781   22.1250   20.0817 C   0  0  0  0  0  0  0  0  0  0  0  0
    6.2714   21.3221   20.6520 C   0  0  0  0  0  0  0  0  0  0  0  0
    7.6063   21.9050   21.0177 C   0  0  0  0  0  0  0  0  0  0  0  0
    5.9872   19.9774   20.9335 C   0  0  0  0  0  0  0  0  0  0  0  0
    4.7344   19.4348   20.6307 C   0  0  0  0  0  0  0  0  0  0  0  0
    1.4706   20.4712   19.3603 C   0  0  0  0  0  0  0  0  0  0  0  0
    2.5403   19.6337   19.7863 O   0  0  0  0  0  0  0  0  0  0  0  0
    2.9101   16.0710   22.1100 N   0  0  0  0  0  0  0  0  0  0  0  0
    2.8019   17.0600   22.3437 H   0  0  0  0  0  0  0  0  0  0  0  0
    1.8564   15.6465   21.2887 C   0  0  0  0  0  0  0  0  0  0  0  0
    1.4828   14.2987   21.3275 C   0  0  0  0  0  0  0  0  0  0  0  0
    0.4846   13.8002   20.4898 C   0  0  0  0  0  0  0  0  0  0  0  0
   -0.1411   14.6354   19.5624 C   0  0  0  0  0  0  0  0  0  0  0  0
    0.2495   15.9716   19.4519 C   0  0  0  0  0  0  0  0  0  0  0  0
    1.2558   16.4582   20.3176 C   0  0  0  0  0  0  0  0  0  0  0  0
   -0.3198   16.8688   18.4997 N   0  0  0  0  0  0  0  0  0  0  0  0
   -0.5093   18.1763   18.8239 N   0  0  0  0  0  0  0  0  0  0  0  0
   -1.0802   18.7497   17.7820 N   0  0  0  0  0  0  0  0  0  0  0  0
   -1.2512   17.8582   16.7684 N   0  0  0  0  0  0  0  0  0  0  0  0
   -0.7742   16.7044   17.1936 C   0  0  0  0  0  0  0  0  0  0  0  0
   -0.7353   15.4809   16.3695 C   0  0  0  0  0  0  0  0  0  0  0  0
 13 14  1  0  0  0
 14  6  1  0  0  0
  6  7  1  0  0  0
  7  8  2  0  0  0
  8  9  1  0  0  0
  9 10  1  0  0  0
  9 11  2  0  0  0
 11 12  1  0  0  0
 12  2  1  0  0  0
  2  3  1  0  0  0
  3  4  2  0  0  0
  3  1  1  0  0  0
  1 15  1  0  0  0
 15 17  1  0  0  0
 17 18  1  0  0  0
 18 19  2  0  0  0
 19 20  1  0  0  0
 20 21  2  0  0  0
 21 23  1  0  0  0
 23 24  1  0  0  0
 24 25  2  0  0  0
 25 26  1  0  0  0
 26 27  2  0  0  0
 27 28  1  0  0  0
 21 22  1  0  0  0
 12  6  2  0  0  0
 22 17  2  0  0  0
 27 23  1  0  0  0
  2  5  1  0  0  0
 15 16  1  0  0  0
M  END
> <minimizedAffinity>
-9.37266

$$$$
OCNT-2309292


 27 30  0  0  0  0  0  0  0  0999 V2000
    0.9048   14.9254   20.7645 C   0  0  0  0  0  0  0  0  0  0  0  0
   -0.0446   14.7722   19.9842 O   0  0  0  0  0  0  0  0  0  0  0  0
    1.6634   16.0876   20.6915 N   0  0  0  0  0  0  0  0  0  0  0  0
    1.2601   17.1036   19.7089 C   0  0  0  0  0  0  0  0  0  0  0  0
    1.7831   18.5131   20.0322 C   0  0  0  0  0  0  0  0  0  0  0  0
    3.2487   18.5322   20.2010 N   0  0  0  0  0  0  0  0  0  0  0  0
    3.8782   17.2753   20.6394 C   0  0  0  0  0  0  0  0  0  0  0  0
    2.8947   16.3901   21.4314 C   0  0  0  0  0  0  0  0  0  0  0  0
    3.9168   19.7249   20.1888 C   0  0  0  0  0  0  0  0  0  0  0  0
    5.1486   20.0963   20.6874 C   0  0  0  0  0  0  0  0  0  0  0  0
    5.2951   21.4502   20.3461 C   0  0  0  0  0  0  0  0  0  0  0  0
    4.2408   21.9313   19.6907 N   0  0  0  0  0  0  0  0  0  0  0  0
    3.4089   20.8769   19.6370 N   0  0  0  0  0  0  0  0  0  0  0  0
    2.5032   21.0077   19.2089 H   0  0  0  0  0  0  0  0  0  0  0  0
    6.5611   22.2845   20.6710 C   0  0  0  0  0  0  0  0  0  0  0  0
    7.9070   21.7750   20.2197 C   0  0  0  0  0  0  0  0  0  0  0  0
    7.5604   21.7802   21.6799 C   0  0  0  0  0  0  0  0  0  0  0  0
    2.4378   14.2938   22.6679 C   0  0  0  0  0  0  0  0  0  0  0  0
    1.2362   13.8107   21.8093 C   0  0  0  0  0  0  0  0  0  0  0  0
    1.7282   12.5520   21.0603 C   0  0  0  0  0  0  0  0  0  0  0  0
    0.0775   13.5751   22.7973 C   0  0  0  0  0  0  0  0  0  0  0  0
   -0.3314   14.6122   23.6617 C   0  0  0  0  0  0  0  0  0  0  0  0
   -1.3739   14.4237   24.5725 C   0  0  0  0  0  0  0  0  0  0  0  0
   -2.0087   13.1927   24.6404 C   0  0  0  0  0  0  0  0  0  0  0  0
   -3.0076   13.0089   25.5153 F   0  0  0  0  0  0  0  0  0  0  0  0
   -1.6105   12.1416   23.8253 C   0  0  0  0  0  0  0  0  0  0  0  0
   -0.5690   12.3278   22.9115 C   0  0  0  0  0  0  0  0  0  0  0  0
 18 19  1  0  0  0
 19 20  1  0  0  0
 19  1  1  0  0  0
  1  2  2  0  0  0
  1  3  1  0  0  0
  3  4  1  0  0  0
  4  5  1  0  0  0
  5  6  1  0  0  0
  6  9  1  0  0  0
  9 10  2  0  0  0
 10 11  1  0  0  0
 11 15  1  0  0  0
 15 16  1  0  0  0
 16 17  1  0  0  0
 11 12  2  0  0  0
 12 13  1  0  0  0
  6  7  1  0  0  0
  7  8  1  0  0  0
 19 21  1  0  0  0
 21 22  1  0  0  0
 22 23  2  0  0  0
 23 24  1  0  0  0
 24 25  1  0  0  0
 24 26  2  0  0  0
 26 27  1  0  0  0
  8  3  1  0  0  0
 27 21  2  0  0  0
 13  9  1  0  0  0
 17 15  1  0  0  0
 13 14  1  0  0  0
M  END
> <minimizedAffinity>
-3.88409

$$$$
OCNT-2309302


 26 30  0  0  0  0  0  0  0  0999 V2000
    4.1725   15.8160   22.1058 O   0  0  0  0  0  0  0  0  0  0  0  0
    3.4990   16.7903   21.7844 C   0  0  0  0  0  0  0  0  0  0  0  0
    3.7287   18.0519   22.2742 N   0  0  0  0  0  0  0  0  0  0  0  0
    3.0781   18.7901   22.0581 H   0  0  0  0  0  0  0  0  0  0  0  0
    2.3893   16.6782   20.8630 C   0  0  0  0  0  0  0  0  0  0  0  0
    1.6037   15.6096   20.4635 C   0  0  0  0  0  0  0  0  0  0  0  0
    0.6471   16.0822   19.5211 C   0  0  0  0  0  0  0  0  0  0  0  0
   -0.3891   15.4833   18.7832 C   0  0  0  0  0  0  0  0  0  0  0  0
   -0.6375   14.1708   18.9017 F   0  0  0  0  0  0  0  0  0  0  0  0
   -1.1699   16.2506   17.9182 C   0  0  0  0  0  0  0  0  0  0  0  0
   -0.9270   17.6160   17.7810 C   0  0  0  0  0  0  0  0  0  0  0  0
    0.0971   18.2426   18.5020 C   0  0  0  0  0  0  0  0  0  0  0  0
    0.8664   17.4494   19.3634 C   0  0  0  0  0  0  0  0  0  0  0  0
    1.9170   17.7821   20.1834 N   0  0  0  0  0  0  0  0  0  0  0  0
    2.3095   18.7091   20.2899 H   0  0  0  0  0  0  0  0  0  0  0  0
    4.7422   18.3233   23.2664 C   0  0  0  0  0  0  0  0  0  0  0  0
    6.0798   18.3724   22.6008 C   0  0  0  0  0  0  0  0  0  0  0  0
    6.8528   19.6581   22.3822 C   0  0  0  0  0  0  0  0  0  0  0  0
    6.2435   21.0515   22.4483 C   0  0  0  0  0  0  0  0  0  0  0  0
    5.3075   21.0938   21.2644 C   0  0  0  0  0  0  0  0  0  0  0  0
    4.5062   22.1538   20.8688 C   0  0  0  0  0  0  0  0  0  0  0  0
    3.6912   21.9839   19.7493 C   0  0  0  0  0  0  0  0  0  0  0  0
    3.6861   20.7690   19.0482 C   0  0  0  0  0  0  0  0  0  0  0  0
    4.4982   19.7072   19.4564 C   0  0  0  0  0  0  0  0  0  0  0  0
    5.3131   19.8706   20.5674 C   0  0  0  0  0  0  0  0  0  0  0  0
    6.2600   18.8971   21.1953 C   0  0  0  0  0  0  0  0  0  0  0  0
  1  2  2  0  0  0
  2  3  1  0  0  0
  3 16  1  0  0  0
 16 17  1  0  0  0
 17 18  1  0  0  0
 18 19  1  0  0  0
 19 20  1  0  0  0
 20 21  2  0  0  0
 21 22  1  0  0  0
 22 23  2  0  0  0
 23 24  1  0  0  0
 24 25  2  0  0  0
 25 26  1  0  0  0
  2  5  1  0  0  0
  5  6  2  0  0  0
  6  7  1  0  0  0
  7  8  2  0  0  0
  8  9  1  0  0  0
  8 10  1  0  0  0
 10 11  2  0  0  0
 11 12  1  0  0  0
 12 13  2  0  0  0
 13 14  1  0  0  0
 26 17  1  0  0  0
 14  5  1  0  0  0
 26 18  1  0  0  0
 13  7  1  0  0  0
 25 20  1  0  0  0
  3  4  1  0  0  0
 14 15  1  0  0  0
M  END
> <minimizedAffinity>
-10.05715

$$$$
OCNT-2309323


 27 30  0  0  0  0  0  0  0  0999 V2000
   -0.0901   18.5989   17.8419 C   0  0  0  0  0  0  0  0  0  0  0  0
   -0.4603   19.5272   17.1274 O   0  0  0  0  0  0  0  0  0  0  0  0
    0.6727   18.8095   18.9945 N   0  0  0  0  0  0  0  0  0  0  0  0
    1.5433   17.7683   19.5671 C   0  0  0  0  0  0  0  0  0  0  0  0
    2.5588   18.3096   20.5863 C   0  0  0  0  0  0  0  0  0  0  0  0
    3.2809   19.4875   20.0846 N   0  0  0  0  0  0  0  0  0  0  0  0
    4.6097   19.6708   20.4519 C   0  0  0  0  0  0  0  0  0  0  0  0
    5.1650   18.9041   21.2405 O   0  0  0  0  0  0  0  0  0  0  0  0
    2.4946   20.4534   19.2991 C   0  0  0  0  0  0  0  0  0  0  0  0
    0.9857   20.1874   19.3777 C   0  0  0  0  0  0  0  0  0  0  0  0
    0.0760   14.3418   19.9701 C   0  0  0  0  0  0  0  0  0  0  0  0
   -0.3876   13.3530   19.0887 C   0  0  0  0  0  0  0  0  0  0  0  0
   -0.8229   13.6690   17.7970 C   0  0  0  0  0  0  0  0  0  0  0  0
   -0.7701   15.0110   17.4321 C   0  0  0  0  0  0  0  0  0  0  0  0
   -1.1734   15.5163   16.2351 O   0  0  0  0  0  0  0  0  0  0  0  0
   -0.9846   16.8588   16.2901 C   0  0  0  0  0  0  0  0  0  0  0  0
   -0.4128   17.2302   17.4906 C   0  0  0  0  0  0  0  0  0  0  0  0
   -0.3068   16.0289   18.2573 C   0  0  0  0  0  0  0  0  0  0  0  0
    0.1083   15.6895   19.5612 C   0  0  0  0  0  0  0  0  0  0  0  0
    1.8383   14.6014   21.7380 C   0  0  0  0  0  0  0  0  0  0  0  0
    0.5057   13.9684   21.3683 C   0  0  0  0  0  0  0  0  0  0  0  0
    5.3297   20.8781   19.8835 C   0  0  0  0  0  0  0  0  0  0  0  0
    6.3762   21.3624   20.7539 N   0  0  0  0  0  0  0  0  0  0  0  0
    7.6897   21.5817   20.4847 C   0  0  0  0  0  0  0  0  0  0  0  0
    8.2982   21.8865   21.6079 N   0  0  0  0  0  0  0  0  0  0  0  0
    7.3307   21.8448   22.5836 N   0  0  0  0  0  0  0  0  0  0  0  0
    6.1537   21.5105   22.0715 N   0  0  0  0  0  0  0  0  0  0  0  0
 20 21  1  0  0  0
 21 11  1  0  0  0
 11 12  2  0  0  0
 12 13  1  0  0  0
 13 14  2  0  0  0
 14 15  1  0  0  0
 15 16  1  0  0  0
 16 17  2  0  0  0
 17  1  1  0  0  0
  1  2  2  0  0  0
  1  3  1  0  0  0
  3  4  1  0  0  0
  4  5  1  0  0  0
  5  6  1  0  0  0
  6  7  1  0  0  0
  7  8  2  0  0  0
  7 22  1  0  0  0
 22 23  1  0  0  0
 23 24  1  0  0  0
 24 25  2  0  0  0
 25 26  1  0  0  0
 26 27  2  0  0  0
  6  9  1  0  0  0
  9 10  1  0  0  0
 17 18  1  0  0  0
 18 19  2  0  0  0
 19 11  1  0  0  0
 18 14  1  0  0  0
 10  3  1  0  0  0
 27 23  1  0  0  0
M  END
> <minimizedAffinity>
-5.85849

$$$$
OCNT-2309324


 25 28  0  0  0  0  0  0  0  0999 V2000
    3.9859   17.1654   20.7011 C   0  0  0  0  0  0  0  0  0  0  0  0
    4.5752   15.7442   20.7741 C   0  0  0  0  0  0  0  0  0  0  0  0
    4.0140   14.9693   21.9638 C   0  0  0  0  0  0  0  0  0  0  0  0
    2.4975   14.8030   21.8311 C   0  0  0  0  0  0  0  0  0  0  0  0
    1.8441   16.0429   21.3929 N   0  0  0  0  0  0  0  0  0  0  0  0
    2.6506   17.2714   21.4658 C   0  0  0  0  0  0  0  0  0  0  0  0
    1.0072   15.9313   20.2814 C   0  0  0  0  0  0  0  0  0  0  0  0
    0.5717   14.7058   19.8810 N   0  0  0  0  0  0  0  0  0  0  0  0
   -0.2248   14.6028   18.7992 C   0  0  0  0  0  0  0  0  0  0  0  0
   -0.6745   15.5860   18.0053 N   0  0  0  0  0  0  0  0  0  0  0  0
   -0.2137   16.7817   18.4096 C   0  0  0  0  0  0  0  0  0  0  0  0
    0.6030   17.0291   19.4989 C   0  0  0  0  0  0  0  0  0  0  0  0
    0.8153   18.4249   19.4588 C   0  0  0  0  0  0  0  0  0  0  0  0
    0.1705   19.0278   18.4545 N   0  0  0  0  0  0  0  0  0  0  0  0
   -0.4438   17.9985   17.8260 N   0  0  0  0  0  0  0  0  0  0  0  0
   -1.2211   18.2573   16.6390 C   0  0  0  0  0  0  0  0  0  0  0  0
    4.9259   18.0572   21.3420 O   0  0  0  0  0  0  0  0  0  0  0  0
    5.4479   20.4243   21.5607 C   0  0  0  0  0  0  0  0  0  0  0  0
    5.2269   21.7209   21.0900 C   0  0  0  0  0  0  0  0  0  0  0  0
    4.3613   21.9468   20.0115 C   0  0  0  0  0  0  0  0  0  0  0  0
    3.7116   20.8797   19.3944 C   0  0  0  0  0  0  0  0  0  0  0  0
    3.9154   19.5849   19.8625 C   0  0  0  0  0  0  0  0  0  0  0  0
    4.7573   19.3624   20.9553 C   0  0  0  0  0  0  0  0  0  0  0  0
    7.6823   20.0739   22.3063 C   0  0  0  0  0  0  0  0  0  0  0  0
    6.2905   20.1017   22.5910 O   0  0  0  0  0  0  0  0  0  0  0  0
 24 25  1  0  0  0
 25 18  1  0  0  0
 18 19  2  0  0  0
 19 20  1  0  0  0
 20 21  2  0  0  0
 21 22  1  0  0  0
 22 23  2  0  0  0
 23 17  1  0  0  0
 17  1  1  0  0  0
  1  2  1  0  0  0
  2  3  1  0  0  0
  3  4  1  0  0  0
  4  5  1  0  0  0
  5  7  1  0  0  0
  7  8  1  0  0  0
  8  9  2  0  0  0
  9 10  1  0  0  0
 10 11  2  0  0  0
 11 12  1  0  0  0
 12 13  1  0  0  0
 13 14  2  0  0  0
 14 15  1  0  0  0
 15 16  1  0  0  0
  5  6  1  0  0  0
 23 18  1  0  0  0
  6  1  1  0  0  0
 12  7  2  0  0  0
 15 11  1  0  0  0
M  END
> <minimizedAffinity>
-7.38699

$$$$
OCNT-2309355


 27 30  0  0  0  0  0  0  0  0999 V2000
    1.1242   15.5910   19.7458 C   0  0  0  0  0  0  0  0  0  0  0  0
    0.1097   16.2089   18.7742 C   0  0  0  0  0  0  0  0  0  0  0  0
    0.8561   17.4089   18.2127 C   0  0  0  0  0  0  0  0  0  0  0  0
    1.6053   17.9280   19.4299 C   0  0  0  0  0  0  0  0  0  0  0  0
    1.9475   16.7261   20.1827 N   0  0  0  0  0  0  0  0  0  0  0  0
    3.1403   16.5248   20.8587 C   0  0  0  0  0  0  0  0  0  0  0  0
    3.5768   15.4050   21.1225 O   0  0  0  0  0  0  0  0  0  0  0  0
   -2.5484   11.5606   24.7811 C   0  0  0  0  0  0  0  0  0  0  0  0
   -1.6449   12.5908   24.1683 C   0  0  0  0  0  0  0  0  0  0  0  0
   -1.0119   13.5462   24.9782 C   0  0  0  0  0  0  0  0  0  0  0  0
   -0.1857   14.5404   24.4379 C   0  0  0  0  0  0  0  0  0  0  0  0
   -0.0310   14.5398   23.0516 C   0  0  0  0  0  0  0  0  0  0  0  0
    0.6802   15.3421   22.2013 N   0  0  0  0  0  0  0  0  0  0  0  0
    0.4668   14.9132   20.9102 C   0  0  0  0  0  0  0  0  0  0  0  0
   -0.3368   13.8650   20.8988 N   0  0  0  0  0  0  0  0  0  0  0  0
   -0.6533   13.6238   22.2142 C   0  0  0  0  0  0  0  0  0  0  0  0
   -1.4770   12.6348   22.7725 C   0  0  0  0  0  0  0  0  0  0  0  0
    1.2329   16.1564   22.4479 H   0  0  0  0  0  0  0  0  0  0  0  0
    3.9131   17.6976   21.3084 C   0  0  0  0  0  0  0  0  0  0  0  0
    4.4642   17.7866   22.5845 C   0  0  0  0  0  0  0  0  0  0  0  0
    5.2036   18.9180   22.9276 C   0  0  0  0  0  0  0  0  0  0  0  0
    5.3831   19.9287   21.9810 C   0  0  0  0  0  0  0  0  0  0  0  0
    4.8676   19.8398   20.7288 N   0  0  0  0  0  0  0  0  0  0  0  0
    4.1603   18.7262   20.4149 C   0  0  0  0  0  0  0  0  0  0  0  0
    6.1763   21.1830   22.2917 C   0  0  0  0  0  0  0  0  0  0  0  0
    5.2819   22.2940   22.8443 C   0  0  0  0  0  0  0  0  0  0  0  0
    6.9706   21.6659   21.0771 C   0  0  0  0  0  0  0  0  0  0  0  0
  8  9  1  0  0  0
  9 10  2  0  0  0
 10 11  1  0  0  0
 11 12  2  0  0  0
 12 13  1  0  0  0
 13 14  1  0  0  0
 14  1  1  0  0  0
  1  2  1  0  0  0
  2  3  1  0  0  0
  3  4  1  0  0  0
  4  5  1  0  0  0
  5  6  1  0  0  0
  6  7  2  0  0  0
  6 19  1  0  0  0
 19 20  2  0  0  0
 20 21  1  0  0  0
 21 22  2  0  0  0
 22 25  1  0  0  0
 25 26  1  0  0  0
 25 27  1  0  0  0
 22 23  1  0  0  0
 23 24  2  0  0  0
 14 15  2  0  0  0
 15 16  1  0  0  0
 16 17  2  0  0  0
 17  9  1  0  0  0
 16 12  1  0  0  0
  5  1  1  0  0  0
 24 19  1  0  0  0
 13 18  1  0  0  0
M  END
> <minimizedAffinity>
-2.97189

$$$$
OCNT-2309376


 28 31  0  0  0  0  0  0  0  0999 V2000
    2.8587   15.3165   22.5005 O   0  0  0  0  0  0  0  0  0  0  0  0
    2.7428   15.9003   21.4298 C   0  0  0  0  0  0  0  0  0  0  0  0
    3.5710   16.8861   20.9297 N   0  0  0  0  0  0  0  0  0  0  0  0
    3.3137   17.3566   20.0719 H   0  0  0  0  0  0  0  0  0  0  0  0
    4.7393   17.3316   21.5299 C   0  0  0  0  0  0  0  0  0  0  0  0
    5.6312   16.6082   22.2816 C   0  0  0  0  0  0  0  0  0  0  0  0
    6.6362   17.4639   22.6095 N   0  0  0  0  0  0  0  0  0  0  0  0
    6.4759   18.7012   22.1163 N   0  0  0  0  0  0  0  0  0  0  0  0
    5.2962   18.6505   21.4754 C   0  0  0  0  0  0  0  0  0  0  0  0
    7.4664   17.2690   23.1590 H   0  0  0  0  0  0  0  0  0  0  0  0
    4.7442   19.8356   20.8240 C   0  0  0  0  0  0  0  0  0  0  0  0
    3.5506   19.7464   20.0965 C   0  0  0  0  0  0  0  0  0  0  0  0
    3.0085   20.8800   19.4874 C   0  0  0  0  0  0  0  0  0  0  0  0
    3.6597   22.1082   19.5944 C   0  0  0  0  0  0  0  0  0  0  0  0
    4.8569   22.2041   20.3030 C   0  0  0  0  0  0  0  0  0  0  0  0
    5.4000   21.0714   20.9137 C   0  0  0  0  0  0  0  0  0  0  0  0
    1.5846   15.5641   20.5577 C   0  0  0  0  0  0  0  0  0  0  0  0
    0.9766   14.3046   20.6048 C   0  0  0  0  0  0  0  0  0  0  0  0
   -0.1092   14.0296   19.7747 C   0  0  0  0  0  0  0  0  0  0  0  0
   -0.5961   15.0106   18.9047 C   0  0  0  0  0  0  0  0  0  0  0  0
   -0.0098   16.2851   18.8591 C   0  0  0  0  0  0  0  0  0  0  0  0
    1.0846   16.5493   19.6965 C   0  0  0  0  0  0  0  0  0  0  0  0
   -0.4925   17.3369   17.9640 C   0  0  0  0  0  0  0  0  0  0  0  0
    0.2164   18.0052   17.0726 N   0  0  0  0  0  0  0  0  0  0  0  0
   -0.6849   18.8626   16.5125 C   0  0  0  0  0  0  0  0  0  0  0  0
   -1.9235   18.7793   16.9991 N   0  0  0  0  0  0  0  0  0  0  0  0
   -1.7760   17.8164   17.9232 N   0  0  0  0  0  0  0  0  0  0  0  0
   -2.5726   17.5493   18.4873 H   0  0  0  0  0  0  0  0  0  0  0  0
  1  2  2  0  0  0
  2  3  1  0  0  0
  3  5  1  0  0  0
  5  6  2  0  0  0
  6  7  1  0  0  0
  7  8  1  0  0  0
  8  9  2  0  0  0
  9 11  1  0  0  0
 11 12  2  0  0  0
 12 13  1  0  0  0
 13 14  2  0  0  0
 14 15  1  0  0  0
 15 16  2  0  0  0
  2 17  1  0  0  0
 17 18  1  0  0  0
 18 19  2  0  0  0
 19 20  1  0  0  0
 20 21  2  0  0  0
 21 23  1  0  0  0
 23 24  2  0  0  0
 24 25  1  0  0  0
 25 26  2  0  0  0
 26 27  1  0  0  0
 21 22  1  0  0  0
  9  5  1  0  0  0
 16 11  1  0  0  0
 22 17  2  0  0  0
 27 23  1  0  0  0
  3  4  1  0  0  0
  7 10  1  0  0  0
 27 28  1  0  0  0
M  END
> <minimizedAffinity>
-9.40459

$$$$
OCNT-2309378


 25 26  0  0  0  0  0  0  0  0999 V2000
   -1.6428   17.0838   17.6094 C   0  0  0  0  0  0  0  0  0  0  0  0
   -0.4212   17.7183   18.2116 C   0  0  0  0  0  0  0  0  0  0  0  0
   -0.1002   19.0363   17.8574 C   0  0  0  0  0  0  0  0  0  0  0  0
    1.0529   19.6595   18.3518 C   0  0  0  0  0  0  0  0  0  0  0  0
    1.9174   18.9793   19.2075 C   0  0  0  0  0  0  0  0  0  0  0  0
    1.5936   17.6734   19.5871 C   0  0  0  0  0  0  0  0  0  0  0  0
    0.4244   17.0531   19.1154 C   0  0  0  0  0  0  0  0  0  0  0  0
    3.1081   19.5269   19.7337 N   0  0  0  0  0  0  0  0  0  0  0  0
    3.9387   18.9630   20.6859 C   0  0  0  0  0  0  0  0  0  0  0  0
    3.7646   17.9041   21.2761 O   0  0  0  0  0  0  0  0  0  0  0  0
    3.3210   20.4661   19.4229 H   0  0  0  0  0  0  0  0  0  0  0  0
    5.1444   19.7554   21.0304 C   0  0  0  0  0  0  0  0  0  0  0  0
    5.9384   19.3330   22.0946 C   0  0  0  0  0  0  0  0  0  0  0  0
    7.0632   19.9759   22.5037 N   0  0  0  0  0  0  0  0  0  0  0  0
    7.4163   21.0777   21.8017 C   0  0  0  0  0  0  0  0  0  0  0  0
    6.6963   21.5537   20.7190 C   0  0  0  0  0  0  0  0  0  0  0  0
    7.1042   22.6424   20.0558 F   0  0  0  0  0  0  0  0  0  0  0  0
    5.5450   20.8885   20.3188 C   0  0  0  0  0  0  0  0  0  0  0  0
    0.1652   15.6794   19.6176 C   0  0  0  0  0  0  0  0  0  0  0  0
   -0.3654   14.8520   18.8872 O   0  0  0  0  0  0  0  0  0  0  0  0
    0.6267   15.4148   20.8890 N   0  0  0  0  0  0  0  0  0  0  0  0
    1.2549   16.0866   21.3116 H   0  0  0  0  0  0  0  0  0  0  0  0
    0.5815   14.0743   21.4540 C   0  0  0  0  0  0  0  0  0  0  0  0
    1.9923   13.5184   21.6329 C   0  0  0  0  0  0  0  0  0  0  0  0
   -0.1661   14.0948   22.7830 C   0  0  0  0  0  0  0  0  0  0  0  0
  1  2  1  0  0  0
  2  3  1  0  0  0
  3  4  2  0  0  0
  4  5  1  0  0  0
  5  8  1  0  0  0
  8  9  1  0  0  0
  9 10  2  0  0  0
  9 12  1  0  0  0
 12 13  2  0  0  0
 13 14  1  0  0  0
 14 15  2  0  0  0
 15 16  1  0  0  0
 16 17  1  0  0  0
 16 18  2  0  0  0
  5  6  2  0  0  0
  6  7  1  0  0  0
  7 19  1  0  0  0
 19 20  2  0  0  0
 19 21  1  0  0  0
 21 23  1  0  0  0
 23 24  1  0  0  0
 23 25  1  0  0  0
  7  2  2  0  0  0
 18 12  1  0  0  0
  8 11  1  0  0  0
 21 22  1  0  0  0
M  END
> <minimizedAffinity>
-9.89973

$$$$
OCNT-2309390


 23 25  0  0  0  0  0  0  0  0999 V2000
    2.4681   18.3160   19.6533 N   0  0  0  0  0  0  0  0  0  0  0  0
    2.6398   17.2890   20.5667 C   0  0  0  0  0  0  0  0  0  0  0  0
    3.7425   17.6689   21.3073 C   0  0  0  0  0  0  0  0  0  0  0  0
    4.2442   18.8666   20.8778 N   0  0  0  0  0  0  0  0  0  0  0  0
    3.4567   19.2354   19.8968 C   0  0  0  0  0  0  0  0  0  0  0  0
    1.8217   16.0910   20.6653 C   0  0  0  0  0  0  0  0  0  0  0  0
    2.0548   15.1648   21.6879 C   0  0  0  0  0  0  0  0  0  0  0  0
    1.2782   14.0082   21.7791 C   0  0  0  0  0  0  0  0  0  0  0  0
    0.2628   13.7749   20.8525 C   0  0  0  0  0  0  0  0  0  0  0  0
    0.0194   14.6991   19.8374 C   0  0  0  0  0  0  0  0  0  0  0  0
    0.7948   15.8563   19.7453 C   0  0  0  0  0  0  0  0  0  0  0  0
    1.4881   18.3432   18.5866 C   0  0  0  0  0  0  0  0  0  0  0  0
   -0.5159   19.2452   17.7722 F   0  0  0  0  0  0  0  0  0  0  0  0
    0.2793   19.2045   18.8736 C   0  0  0  0  0  0  0  0  0  0  0  0
   -0.4801   18.7291   19.8821 F   0  0  0  0  0  0  0  0  0  0  0  0
    0.6065   20.4816   19.1547 F   0  0  0  0  0  0  0  0  0  0  0  0
    3.6593   20.7001   18.9982 S   0  0  0  0  0  0  0  0  0  0  0  0
    3.8832   21.8645   20.3852 C   0  0  0  0  0  0  0  0  0  0  0  0
    5.2618   21.7560   20.9677 C   0  0  0  0  0  0  0  0  0  0  0  0
    6.3761   21.7088   20.2624 N   0  0  0  0  0  0  0  0  0  0  0  0
    7.4623   21.5937   21.1054 C   0  0  0  0  0  0  0  0  0  0  0  0
    7.1702   21.5616   22.4503 C   0  0  0  0  0  0  0  0  0  0  0  0
    5.4767   21.6788   22.6773 S   0  0  0  0  0  0  0  0  0  0  0  0
 13 14  1  0  0  0
 14 15  1  0  0  0
 14 16  1  0  0  0
 14 12  1  0  0  0
 12  1  1  0  0  0
  1  2  1  0  0  0
  2  6  1  0  0  0
  6  7  2  0  0  0
  7  8  1  0  0  0
  8  9  2  0  0  0
  9 10  1  0  0  0
 10 11  2  0  0  0
  2  3  2  0  0  0
  3  4  1  0  0  0
  4  5  2  0  0  0
  5 17  1  0  0  0
 17 18  1  0  0  0
 18 19  1  0  0  0
 19 20  2  0  0  0
 20 21  1  0  0  0
 21 22  2  0  0  0
 22 23  1  0  0  0
  5  1  1  0  0  0
 23 19  1  0  0  0
 11  6  1  0  0  0
M  END
> <minimizedAffinity>
-8.39513

$$$$
OCNT-2309396


 33 36  0  0  0  0  0  0  0  0999 V2000
    1.8443   20.4289   19.1080 C   0  0  0  0  0  0  0  0  0  0  0  0
    0.9257   19.3361   18.6993 C   0  0  0  0  0  0  0  0  0  0  0  0
   -0.0302   19.5877   17.7952 N   0  0  0  0  0  0  0  0  0  0  0  0
   -0.6718   18.4045   17.6389 N   0  0  0  0  0  0  0  0  0  0  0  0
   -0.1639   17.4172   18.4531 C   0  0  0  0  0  0  0  0  0  0  0  0
   -0.6033   16.1463   18.5544 N   0  0  0  0  0  0  0  0  0  0  0  0
    0.0881   15.3667   19.4149 C   0  0  0  0  0  0  0  0  0  0  0  0
    1.1650   15.8236   20.1718 C   0  0  0  0  0  0  0  0  0  0  0  0
    1.5725   17.1577   20.0491 C   0  0  0  0  0  0  0  0  0  0  0  0
    0.8920   17.9897   19.1477 C   0  0  0  0  0  0  0  0  0  0  0  0
   -1.7980   18.2873   16.6938 C   0  0  0  0  0  0  0  0  0  0  0  0
   -2.8655   17.3356   17.2669 C   0  0  0  0  0  0  0  0  0  0  0  0
   -2.4782   19.6557   16.4406 C   0  0  0  0  0  0  0  0  0  0  0  0
   -1.3035   17.7647   15.3298 C   0  0  0  0  0  0  0  0  0  0  0  0
    2.7157   17.6570   20.8366 C   0  0  0  0  0  0  0  0  0  0  0  0
    2.9742   17.1124   21.9003 O   0  0  0  0  0  0  0  0  0  0  0  0
    3.3863   18.7119   20.2461 N   0  0  0  0  0  0  0  0  0  0  0  0
    3.0977   18.9738   19.3115 H   0  0  0  0  0  0  0  0  0  0  0  0
    4.4879   19.4226   20.7694 C   0  0  0  0  0  0  0  0  0  0  0  0
    4.6767   19.3780   22.1584 C   0  0  0  0  0  0  0  0  0  0  0  0
    5.7380   20.0608   22.7602 C   0  0  0  0  0  0  0  0  0  0  0  0
    6.6416   20.7781   21.9736 C   0  0  0  0  0  0  0  0  0  0  0  0
    7.7345   21.6051   22.5891 C   0  0  0  0  0  0  0  0  0  0  0  0
    8.9380   21.6967   21.6663 C   0  0  0  0  0  0  0  0  0  0  0  0
    8.5428   22.0542   20.2516 C   0  0  0  0  0  0  0  0  0  0  0  0
    9.2776   22.7025   19.5108 O   0  0  0  0  0  0  0  0  0  0  0  0
    7.3669   21.5220   19.7931 N   0  0  0  0  0  0  0  0  0  0  0  0
    6.4646   20.8069   20.5880 C   0  0  0  0  0  0  0  0  0  0  0  0
    5.3898   20.1463   19.9871 C   0  0  0  0  0  0  0  0  0  0  0  0
    7.1754   21.6552   18.8079 H   0  0  0  0  0  0  0  0  0  0  0  0
   -0.3750   13.9221   19.5025 C   0  0  0  0  0  0  0  0  0  0  0  0
   -0.4967   13.2864   18.1171 C   0  0  0  0  0  0  0  0  0  0  0  0
    0.5237   13.0880   20.4170 C   0  0  0  0  0  0  0  0  0  0  0  0
  1  2  1  0  0  0
  2  3  2  0  0  0
  3  4  1  0  0  0
  4 11  1  0  0  0
 11 12  1  0  0  0
 11 13  1  0  0  0
 11 14  1  0  0  0
  4  5  1  0  0  0
  5  6  1  0  0  0
  6  7  2  0  0  0
  7 31  1  0  0  0
 31 32  1  0  0  0
 31 33  1  0  0  0
  7  8  1  0  0  0
  8  9  2  0  0  0
  9 15  1  0  0  0
 15 16  2  0  0  0
 15 17  1  0  0  0
 17 19  1  0  0  0
 19 20  1  0  0  0
 20 21  2  0  0  0
 21 22  1  0  0  0
 22 23  1  0  0  0
 23 24  1  0  0  0
 24 25  1  0  0  0
 25 26  2  0  0  0
 25 27  1  0  0  0
 27 28  1  0  0  0
 28 29  1  0  0  0
  9 10  1  0  0  0
 10  2  1  0  0  0
 10  5  2  0  0  0
 29 19  2  0  0  0
 28 22  2  0  0  0
 17 18  1  0  0  0
 27 30  1  0  0  0
M  END
> <minimizedAffinity>
3.00130

$$$$
OCNT-2309399


 28 30  0  0  0  0  0  0  0  0999 V2000
    1.5646   16.8266   20.4795 N   0  0  0  0  0  0  0  0  0  0  0  0
    1.1708   18.0620   20.0399 C   0  0  0  0  0  0  0  0  0  0  0  0
   -0.0016   18.3436   19.8084 O   0  0  0  0  0  0  0  0  0  0  0  0
    2.1953   18.9835   19.8882 N   0  0  0  0  0  0  0  0  0  0  0  0
    3.5698   18.8257   20.3766 C   0  0  0  0  0  0  0  0  0  0  0  0
    4.0637   20.0948   21.0642 C   0  0  0  0  0  0  0  0  0  0  0  0
    3.9503   21.3500   20.1733 C   0  0  0  0  0  0  0  0  0  0  0  0
    3.0576   21.1132   18.9453 C   0  0  0  0  0  0  0  0  0  0  0  0
    1.8383   20.2757   19.3097 C   0  0  0  0  0  0  0  0  0  0  0  0
    2.5017   16.5682   20.2260 H   0  0  0  0  0  0  0  0  0  0  0  0
    0.6170   15.7295   20.6795 C   0  0  0  0  0  0  0  0  0  0  0  0
   -0.9728   17.0079   16.0586 C   0  0  0  0  0  0  0  0  0  0  0  0
   -0.7634   15.9574   17.1061 C   0  0  0  0  0  0  0  0  0  0  0  0
   -1.0704   14.6198   16.8334 C   0  0  0  0  0  0  0  0  0  0  0  0
   -0.8681   13.6381   17.8038 C   0  0  0  0  0  0  0  0  0  0  0  0
   -0.3385   13.9824   19.0488 C   0  0  0  0  0  0  0  0  0  0  0  0
    0.0076   15.3136   19.3414 C   0  0  0  0  0  0  0  0  0  0  0  0
   -0.2127   16.2919   18.3522 C   0  0  0  0  0  0  0  0  0  0  0  0
    1.2399   14.5670   21.5358 C   0  0  0  0  0  0  0  0  0  0  0  0
    2.6384   14.9975   22.0402 C   0  0  0  0  0  0  0  0  0  0  0  0
    0.3686   14.2880   22.7795 C   0  0  0  0  0  0  0  0  0  0  0  0
    1.4089   13.2518   20.7527 C   0  0  0  0  0  0  0  0  0  0  0  0
    5.3163   21.9615   19.8007 C   0  0  0  0  0  0  0  0  0  0  0  0
    6.3856   21.7477   20.7583 N   0  0  0  0  0  0  0  0  0  0  0  0
    6.2583   21.6604   22.1177 C   0  0  0  0  0  0  0  0  0  0  0  0
    7.5237   21.4200   22.6060 C   0  0  0  0  0  0  0  0  0  0  0  0
    8.3406   21.3659   21.4611 C   0  0  0  0  0  0  0  0  0  0  0  0
    7.6521   21.5669   20.3321 N   0  0  0  0  0  0  0  0  0  0  0  0
 12 13  1  0  0  0
 13 14  1  0  0  0
 14 15  2  0  0  0
 15 16  1  0  0  0
 16 17  2  0  0  0
 17 11  1  0  0  0
 11  1  1  0  0  0
  1  2  1  0  0  0
  2  3  2  0  0  0
  2  4  1  0  0  0
  4  5  1  0  0  0
  5  6  1  0  0  0
  6  7  1  0  0  0
  7 23  1  0  0  0
 23 24  1  0  0  0
 24 25  1  0  0  0
 25 26  2  0  0  0
 26 27  1  0  0  0
 27 28  2  0  0  0
  7  8  1  0  0  0
  8  9  1  0  0  0
 11 19  1  0  0  0
 19 20  1  0  0  0
 19 21  1  0  0  0
 19 22  1  0  0  0
 17 18  1  0  0  0
 18 13  2  0  0  0
  9  4  1  0  0  0
 28 24  1  0  0  0
  1 10  1  0  0  0
M  END
> <minimizedAffinity>
-3.84917

$$$$
OCNT-2309430


 25 27  0  0  0  0  0  0  0  0999 V2000
    3.6321   18.0265   20.9028 C   0  0  0  0  0  0  0  0  0  0  0  0
    3.9570   16.8195   21.3967 N   0  0  0  0  0  0  0  0  0  0  0  0
    2.8187   16.0483   21.1822 O   0  0  0  0  0  0  0  0  0  0  0  0
    1.9021   16.8613   20.5889 C   0  0  0  0  0  0  0  0  0  0  0  0
    2.3437   18.0860   20.3941 N   0  0  0  0  0  0  0  0  0  0  0  0
    4.7681   22.6488   19.3685 C   0  0  0  0  0  0  0  0  0  0  0  0
    5.0860   21.4064   20.1448 C   0  0  0  0  0  0  0  0  0  0  0  0
    6.2360   21.3359   20.9327 C   0  0  0  0  0  0  0  0  0  0  0  0
    6.4902   20.1776   21.6617 C   0  0  0  0  0  0  0  0  0  0  0  0
    7.7201   20.0779   22.5146 C   0  0  0  0  0  0  0  0  0  0  0  0
    5.6583   19.1117   21.6511 N   0  0  0  0  0  0  0  0  0  0  0  0
    4.5304   19.1868   20.8970 C   0  0  0  0  0  0  0  0  0  0  0  0
    4.2146   20.3146   20.1400 C   0  0  0  0  0  0  0  0  0  0  0  0
    0.5686   16.2779   20.2263 C   0  0  0  0  0  0  0  0  0  0  0  0
   -0.0756   17.1227   19.2041 N   0  0  0  0  0  0  0  0  0  0  0  0
    0.0011   18.5731   19.3431 C   0  0  0  0  0  0  0  0  0  0  0  0
    0.6295   19.2027   18.1076 C   0  0  0  0  0  0  0  0  0  0  0  0
   -0.0350   18.7280   16.8132 C   0  0  0  0  0  0  0  0  0  0  0  0
   -1.0622   17.6219   17.0294 C   0  0  0  0  0  0  0  0  0  0  0  0
   -0.5575   16.5877   18.0145 C   0  0  0  0  0  0  0  0  0  0  0  0
   -0.6153   15.3879   17.7686 O   0  0  0  0  0  0  0  0  0  0  0  0
    0.6383   14.7700   19.9028 C   0  0  0  0  0  0  0  0  0  0  0  0
    0.5758   13.8359   21.1301 C   0  0  0  0  0  0  0  0  0  0  0  0
   -0.0947   14.4927   22.3376 C   0  0  0  0  0  0  0  0  0  0  0  0
    1.9901   13.3857   21.5078 C   0  0  0  0  0  0  0  0  0  0  0  0
  6  7  1  0  0  0
  7  8  1  0  0  0
  8  9  2  0  0  0
  9 10  1  0  0  0
  9 11  1  0  0  0
 11 12  2  0  0  0
 12  1  1  0  0  0
  1  2  2  0  0  0
  2  3  1  0  0  0
  3  4  1  0  0  0
  4 14  1  0  0  0
 14 22  1  0  0  0
 22 23  1  0  0  0
 23 24  1  0  0  0
 23 25  1  0  0  0
 14 15  1  0  0  0
 15 16  1  0  0  0
 16 17  1  0  0  0
 17 18  1  0  0  0
 18 19  1  0  0  0
 19 20  1  0  0  0
 20 21  2  0  0  0
  4  5  2  0  0  0
 12 13  1  0  0  0
 13  7  2  0  0  0
  5  1  1  0  0  0
 20 15  1  0  0  0
M  END
> <minimizedAffinity>
-9.19428

$$$$
OCNT-2309431


 28 31  0  0  0  0  0  0  0  0999 V2000
    2.2927   14.6030   21.6857 C   0  0  0  0  0  0  0  0  0  0  0  0
    3.3804   13.8065   21.9862 C   0  0  0  0  0  0  0  0  0  0  0  0
    4.7998   14.7548   22.0507 S   0  0  0  0  0  0  0  0  0  0  0  0
    3.8828   16.1696   21.6656 C   0  0  0  0  0  0  0  0  0  0  0  0
    2.5886   15.9461   21.5092 N   0  0  0  0  0  0  0  0  0  0  0  0
    4.5072   17.5038   21.5284 C   0  0  0  0  0  0  0  0  0  0  0  0
    5.6102   17.9288   22.2881 C   0  0  0  0  0  0  0  0  0  0  0  0
    6.1614   19.2054   22.1118 C   0  0  0  0  0  0  0  0  0  0  0  0
    5.6205   20.0984   21.1771 C   0  0  0  0  0  0  0  0  0  0  0  0
    4.5232   19.6832   20.4107 C   0  0  0  0  0  0  0  0  0  0  0  0
    3.9752   18.4078   20.5877 C   0  0  0  0  0  0  0  0  0  0  0  0
    6.2214   21.4715   20.9767 C   0  0  0  0  0  0  0  0  0  0  0  0
    7.3908   21.4404   20.2769 F   0  0  0  0  0  0  0  0  0  0  0  0
    6.5063   22.0955   22.1533 F   0  0  0  0  0  0  0  0  0  0  0  0
    5.4009   22.3232   20.2954 F   0  0  0  0  0  0  0  0  0  0  0  0
    0.8817   14.1557   21.5124 C   0  0  0  0  0  0  0  0  0  0  0  0
   -0.3162   14.0012   19.4465 O   0  0  0  0  0  0  0  0  0  0  0  0
    0.2924   14.7234   20.2355 C   0  0  0  0  0  0  0  0  0  0  0  0
    0.4975   16.0793   20.1063 N   0  0  0  0  0  0  0  0  0  0  0  0
    1.0402   16.5845   20.7989 H   0  0  0  0  0  0  0  0  0  0  0  0
    0.0491   16.8615   19.0734 C   0  0  0  0  0  0  0  0  0  0  0  0
   -1.2723   16.8827   18.8127 N   0  0  0  0  0  0  0  0  0  0  0  0
   -1.3404   17.7041   17.7735 N   0  0  0  0  0  0  0  0  0  0  0  0
   -2.4932   18.1200   16.9984 C   0  0  0  0  0  0  0  0  0  0  0  0
   -1.9093   19.3253   16.2325 C   0  0  0  0  0  0  0  0  0  0  0  0
   -0.3721   19.0997   16.1878 C   0  0  0  0  0  0  0  0  0  0  0  0
   -0.1655   18.2193   17.3496 C   0  0  0  0  0  0  0  0  0  0  0  0
    0.7881   17.6948   18.1763 C   0  0  0  0  0  0  0  0  0  0  0  0
 17 18  2  0  0  0
 18 16  1  0  0  0
 16  1  1  0  0  0
  1  2  2  0  0  0
  2  3  1  0  0  0
  3  4  1  0  0  0
  4  6  1  0  0  0
  6  7  1  0  0  0
  7  8  2  0  0  0
  8  9  1  0  0  0
  9 12  1  0  0  0
 12 13  1  0  0  0
 12 14  1  0  0  0
 12 15  1  0  0  0
  9 10  2  0  0  0
 10 11  1  0  0  0
  4  5  2  0  0  0
 18 19  1  0  0  0
 19 21  1  0  0  0
 21 22  2  0  0  0
 22 23  1  0  0  0
 23 24  1  0  0  0
 24 25  1  0  0  0
 25 26  1  0  0  0
 26 27  1  0  0  0
 27 28  2  0  0  0
  5  1  1  0  0  0
 28 21  1  0  0  0
 11  6  2  0  0  0
 27 23  1  0  0  0
 19 20  1  0  0  0
M  END
> <minimizedAffinity>
-8.60554

$$$$
OCNT-2309443


 33 35  0  0  0  0  0  0  0  0999 V2000
    5.2954   20.6276   21.6722 C   0  0  0  0  0  0  0  0  0  0  0  0
    4.5903   21.8806   22.2801 C   0  0  0  0  0  0  0  0  0  0  0  0
    4.9018   22.3680   23.3675 O   0  0  0  0  0  0  0  0  0  0  0  0
    3.6926   22.5663   21.4863 N   0  0  0  0  0  0  0  0  0  0  0  0
    3.0625   21.9759   20.3217 C   0  0  0  0  0  0  0  0  0  0  0  0
    3.9875   20.9877   19.6078 C   0  0  0  0  0  0  0  0  0  0  0  0
    4.4902   20.0188   20.5883 N   0  0  0  0  0  0  0  0  0  0  0  0
    3.7162   18.9066   20.9376 C   0  0  0  0  0  0  0  0  0  0  0  0
    3.6367   18.5064   22.0933 O   0  0  0  0  0  0  0  0  0  0  0  0
    3.1076   18.3142   19.8514 N   0  0  0  0  0  0  0  0  0  0  0  0
    3.2341   23.3324   21.9658 H   0  0  0  0  0  0  0  0  0  0  0  0
    3.5850   18.4701   18.9758 H   0  0  0  0  0  0  0  0  0  0  0  0
    7.5917   18.8670   22.5039 C   0  0  0  0  0  0  0  0  0  0  0  0
    7.7976   20.0408   21.5816 C   0  0  0  0  0  0  0  0  0  0  0  0
    9.0934   20.2809   21.0921 C   0  0  0  0  0  0  0  0  0  0  0  0
    9.3354   21.3442   20.2330 C   0  0  0  0  0  0  0  0  0  0  0  0
   10.5769   21.5565   19.7774 F   0  0  0  0  0  0  0  0  0  0  0  0
    8.3090   22.1855   19.8378 C   0  0  0  0  0  0  0  0  0  0  0  0
    7.0143   21.9589   20.3075 C   0  0  0  0  0  0  0  0  0  0  0  0
    6.7306   20.8900   21.1852 C   0  0  0  0  0  0  0  0  0  0  0  0
    2.1448   17.2829   19.8630 C   0  0  0  0  0  0  0  0  0  0  0  0
    1.0715   17.2104   18.9646 C   0  0  0  0  0  0  0  0  0  0  0  0
    0.1384   16.1551   18.9817 C   0  0  0  0  0  0  0  0  0  0  0  0
    0.3281   15.1687   19.9643 C   0  0  0  0  0  0  0  0  0  0  0  0
    1.4045   15.2026   20.8675 C   0  0  0  0  0  0  0  0  0  0  0  0
    2.3085   16.2693   20.8074 C   0  0  0  0  0  0  0  0  0  0  0  0
    1.5558   14.1319   21.9156 C   0  0  0  0  0  0  0  0  0  0  0  0
    2.3544   14.5188   22.9515 F   0  0  0  0  0  0  0  0  0  0  0  0
    2.1043   12.9801   21.4379 F   0  0  0  0  0  0  0  0  0  0  0  0
    0.3663   13.7796   22.4755 F   0  0  0  0  0  0  0  0  0  0  0  0
   -0.9525   16.0944   18.1039 N   0  0  0  0  0  0  0  0  0  0  0  0
   -0.9496   15.0281   17.1007 C   0  0  0  0  0  0  0  0  0  0  0  0
   -1.6110   17.3355   17.6957 C   0  0  0  0  0  0  0  0  0  0  0  0
 13 14  1  0  0  0
 14 15  1  0  0  0
 15 16  2  0  0  0
 16 17  1  0  0  0
 16 18  1  0  0  0
 18 19  2  0  0  0
 19 20  1  0  0  0
 20  1  1  0  0  0
  1  2  1  0  0  0
  2  3  2  0  0  0
  2  4  1  0  0  0
  4  5  1  0  0  0
  5  6  1  0  0  0
  6  7  1  0  0  0
  7  8  1  0  0  0
  8  9  2  0  0  0
  8 10  1  0  0  0
 10 21  1  0  0  0
 21 22  2  0  0  0
 22 23  1  0  0  0
 23 31  1  0  0  0
 31 32  1  0  0  0
 31 33  1  0  0  0
 23 24  2  0  0  0
 24 25  1  0  0  0
 25 27  1  0  0  0
 27 28  1  0  0  0
 27 29  1  0  0  0
 27 30  1  0  0  0
 25 26  2  0  0  0
 20 14  2  0  0  0
  7  1  1  0  0  0
 26 21  1  0  0  0
  4 11  1  0  0  0
 10 12  1  0  0  0
M  END
> <minimizedAffinity>
1.11754

$$$$
OCNT-2309444


 28 31  0  0  0  0  0  0  0  0999 V2000
    3.6892   19.3859   20.6888 C   0  0  0  0  0  0  0  0  0  0  0  0
    2.9274   19.7227   19.3941 C   0  0  0  0  0  0  0  0  0  0  0  0
    2.2301   18.5101   18.7766 C   0  0  0  0  0  0  0  0  0  0  0  0
    1.7574   17.5096   19.8301 C   0  0  0  0  0  0  0  0  0  0  0  0
    2.8551   17.0522   20.6854 N   0  0  0  0  0  0  0  0  0  0  0  0
    2.8879   15.8003   21.3089 C   0  0  0  0  0  0  0  0  0  0  0  0
    3.9385   15.3332   21.7485 O   0  0  0  0  0  0  0  0  0  0  0  0
    4.0522   17.8950   20.7511 C   0  0  0  0  0  0  0  0  0  0  0  0
    8.0315   20.1707   22.5123 N   0  0  0  0  0  0  0  0  0  0  0  0
    6.9996   20.6169   21.7163 C   0  0  0  0  0  0  0  0  0  0  0  0
    7.1212   21.8266   21.1629 N   0  0  0  0  0  0  0  0  0  0  0  0
    6.0840   22.2494   20.4178 C   0  0  0  0  0  0  0  0  0  0  0  0
    4.9363   21.5165   20.2274 C   0  0  0  0  0  0  0  0  0  0  0  0
    4.8926   20.2879   20.8596 C   0  0  0  0  0  0  0  0  0  0  0  0
    5.9247   19.8295   21.6028 N   0  0  0  0  0  0  0  0  0  0  0  0
    7.6680   19.5205   23.1957 H   0  0  0  0  0  0  0  0  0  0  0  0
    8.5493   20.9651   22.8629 H   0  0  0  0  0  0  0  0  0  0  0  0
    1.6384   15.0502   21.4467 C   0  0  0  0  0  0  0  0  0  0  0  0
    1.0316   14.3403   20.4336 C   0  0  0  0  0  0  0  0  0  0  0  0
   -0.0793   13.7336   20.9326 O   0  0  0  0  0  0  0  0  0  0  0  0
   -0.0871   14.0839   22.2540 C   0  0  0  0  0  0  0  0  0  0  0  0
    0.9074   14.8715   22.6145 N   0  0  0  0  0  0  0  0  0  0  0  0
   -1.1981   13.5501   23.0981 C   0  0  0  0  0  0  0  0  0  0  0  0
   -1.2603   14.2475   24.4721 C   0  0  0  0  0  0  0  0  0  0  0  0
   -1.8116   13.3507   25.5852 C   0  0  0  0  0  0  0  0  0  0  0  0
   -2.8739   12.3943   25.0599 C   0  0  0  0  0  0  0  0  0  0  0  0
   -2.3218   11.4593   23.9798 C   0  0  0  0  0  0  0  0  0  0  0  0
   -1.1078   12.0262   23.2379 C   0  0  0  0  0  0  0  0  0  0  0  0
  9 10  1  0  0  0
 10 11  2  0  0  0
 11 12  1  0  0  0
 12 13  2  0  0  0
 13 14  1  0  0  0
 14  1  1  0  0  0
  1  2  1  0  0  0
  2  3  1  0  0  0
  3  4  1  0  0  0
  4  5  1  0  0  0
  5  6  1  0  0  0
  6  7  2  0  0  0
  6 18  1  0  0  0
 18 19  2  0  0  0
 19 20  1  0  0  0
 20 21  1  0  0  0
 21 23  1  0  0  0
 23 24  1  0  0  0
 24 25  1  0  0  0
 25 26  1  0  0  0
 26 27  1  0  0  0
 27 28  1  0  0  0
 21 22  2  0  0  0
  5  8  1  0  0  0
 14 15  2  0  0  0
 15 10  1  0  0  0
  8  1  1  0  0  0
 22 18  1  0  0  0
 28 23  1  0  0  0
  9 16  1  0  0  0
  9 17  1  0  0  0
M  END
> <minimizedAffinity>
-4.71333

$$$$
OCNT-2309448


 27 30  0  0  0  0  0  0  0  0999 V2000
    2.4210   15.7855   21.2544 C   0  0  0  0  0  0  0  0  0  0  0  0
    2.1361   14.7647   22.1710 C   0  0  0  0  0  0  0  0  0  0  0  0
    1.0352   13.9278   21.9808 C   0  0  0  0  0  0  0  0  0  0  0  0
    0.2048   14.0994   20.8710 C   0  0  0  0  0  0  0  0  0  0  0  0
    0.4728   15.1099   19.9480 C   0  0  0  0  0  0  0  0  0  0  0  0
    1.5768   15.9473   20.1455 C   0  0  0  0  0  0  0  0  0  0  0  0
    4.7249   18.4117   21.5831 C   0  0  0  0  0  0  0  0  0  0  0  0
    3.4915   18.0293   21.3297 N   0  0  0  0  0  0  0  0  0  0  0  0
    3.5745   16.6561   21.4577 C   0  0  0  0  0  0  0  0  0  0  0  0
    4.8014   16.2168   21.7879 N   0  0  0  0  0  0  0  0  0  0  0  0
    5.5631   17.3780   21.8750 O   0  0  0  0  0  0  0  0  0  0  0  0
    4.6224   20.4955   22.7050 O   0  0  0  0  0  0  0  0  0  0  0  0
    5.2841   19.8017   21.6273 C   0  0  0  0  0  0  0  0  0  0  0  0
    4.9909   20.5710   20.3299 C   0  0  0  0  0  0  0  0  0  0  0  0
    5.6203   21.9652   20.3288 C   0  0  0  0  0  0  0  0  0  0  0  0
    7.1174   21.9050   20.6167 C   0  0  0  0  0  0  0  0  0  0  0  0
    7.4113   21.1704   21.9216 C   0  0  0  0  0  0  0  0  0  0  0  0
    6.7894   19.7732   21.9364 C   0  0  0  0  0  0  0  0  0  0  0  0
    4.2556   19.8124   23.3006 H   0  0  0  0  0  0  0  0  0  0  0  0
   -0.2565   15.3885   18.8253 O   0  0  0  0  0  0  0  0  0  0  0  0
   -1.1964   16.4595   18.9067 C   0  0  0  0  0  0  0  0  0  0  0  0
   -0.5024   17.7344   18.5182 C   0  0  0  0  0  0  0  0  0  0  0  0
   -0.3188   18.0843   17.1746 C   0  0  0  0  0  0  0  0  0  0  0  0
    0.3444   19.2645   16.8527 C   0  0  0  0  0  0  0  0  0  0  0  0
    0.8092   20.0593   17.8912 C   0  0  0  0  0  0  0  0  0  0  0  0
    0.6555   19.7557   19.2001 N   0  0  0  0  0  0  0  0  0  0  0  0
    0.0010   18.6059   19.4824 C   0  0  0  0  0  0  0  0  0  0  0  0
 12 13  1  0  0  0
 13  7  1  0  0  0
  7  8  2  0  0  0
  8  9  1  0  0  0
  9  1  1  0  0  0
  1  2  2  0  0  0
  2  3  1  0  0  0
  3  4  2  0  0  0
  4  5  1  0  0  0
  5 20  1  0  0  0
 20 21  1  0  0  0
 21 22  1  0  0  0
 22 23  1  0  0  0
 23 24  2  0  0  0
 24 25  1  0  0  0
 25 26  2  0  0  0
 26 27  1  0  0  0
  5  6  2  0  0  0
  9 10  2  0  0  0
 10 11  1  0  0  0
 13 14  1  0  0  0
 14 15  1  0  0  0
 15 16  1  0  0  0
 16 17  1  0  0  0
 17 18  1  0  0  0
 18 13  1  0  0  0
 11  7  1  0  0  0
  6  1  1  0  0  0
 27 22  2  0  0  0
 12 19  1  0  0  0
M  END
> <minimizedAffinity>
-10.34367

$$$$
OCNT-2309449


 24 26  0  0  0  0  0  0  0  0999 V2000
    0.4003   17.1064   17.5091 C   0  0  0  0  0  0  0  0  0  0  0  0
    0.6742   17.6245   18.9170 C   0  0  0  0  0  0  0  0  0  0  0  0
    1.6727   18.7899   18.8893 C   0  0  0  0  0  0  0  0  0  0  0  0
    2.3357   18.7075   20.2676 C   0  0  0  0  0  0  0  0  0  0  0  0
    2.4582   17.1948   20.4795 C   0  0  0  0  0  0  0  0  0  0  0  0
    1.2966   16.6341   19.7968 N   0  0  0  0  0  0  0  0  0  0  0  0
    0.6316   15.4859   20.1655 C   0  0  0  0  0  0  0  0  0  0  0  0
   -0.5140   15.2304   19.8089 O   0  0  0  0  0  0  0  0  0  0  0  0
    1.3565   14.6503   20.9742 N   0  0  0  0  0  0  0  0  0  0  0  0
    2.3556   14.7042   20.8564 H   0  0  0  0  0  0  0  0  0  0  0  0
    3.6331   19.4675   20.4020 C   0  0  0  0  0  0  0  0  0  0  0  0
    3.8688   20.6644   19.7074 C   0  0  0  0  0  0  0  0  0  0  0  0
    5.0815   21.3450   19.8460 C   0  0  0  0  0  0  0  0  0  0  0  0
    6.0704   20.8329   20.6812 C   0  0  0  0  0  0  0  0  0  0  0  0
    7.7109   21.7522   20.8687 Br  0  0  0  0  0  0  0  0  0  0  0  0
    5.8575   19.6475   21.3787 C   0  0  0  0  0  0  0  0  0  0  0  0
    4.6441   18.9689   21.2388 C   0  0  0  0  0  0  0  0  0  0  0  0
    0.8311   13.3616   21.3668 C   0  0  0  0  0  0  0  0  0  0  0  0
   -0.0223   13.4681   22.5971 C   0  0  0  0  0  0  0  0  0  0  0  0
   -0.8675   12.4286   22.9970 C   0  0  0  0  0  0  0  0  0  0  0  0
   -1.6527   12.5771   24.1368 C   0  0  0  0  0  0  0  0  0  0  0  0
   -1.5715   13.7678   24.8390 C   0  0  0  0  0  0  0  0  0  0  0  0
   -0.7764   14.7970   24.4798 N   0  0  0  0  0  0  0  0  0  0  0  0
   -0.0237   14.6272   23.3676 C   0  0  0  0  0  0  0  0  0  0  0  0
  1  2  1  0  0  0
  2  3  1  0  0  0
  3  4  1  0  0  0
  4 11  1  0  0  0
 11 12  1  0  0  0
 12 13  2  0  0  0
 13 14  1  0  0  0
 14 15  1  0  0  0
 14 16  2  0  0  0
 16 17  1  0  0  0
  4  5  1  0  0  0
  5  6  1  0  0  0
  6  7  1  0  0  0
  7  8  2  0  0  0
  7  9  1  0  0  0
  9 18  1  0  0  0
 18 19  1  0  0  0
 19 20  1  0  0  0
 20 21  2  0  0  0
 21 22  1  0  0  0
 22 23  2  0  0  0
 23 24  1  0  0  0
  6  2  1  0  0  0
 24 19  2  0  0  0
 17 11  2  0  0  0
  9 10  1  0  0  0
M  END
> <minimizedAffinity>
-6.32686

$$$$
OCNT-2309458


 27 30  0  0  0  0  0  0  0  0999 V2000
    3.3019   14.8108   22.5419 O   0  0  0  0  0  0  0  0  0  0  0  0
    2.1681   15.1124   22.1623 C   0  0  0  0  0  0  0  0  0  0  0  0
    1.9712   16.1499   21.2427 N   0  0  0  0  0  0  0  0  0  0  0  0
    0.7071   16.4134   20.5551 C   0  0  0  0  0  0  0  0  0  0  0  0
    0.9033   17.2070   19.2672 C   0  0  0  0  0  0  0  0  0  0  0  0
    1.6327   18.5285   19.5039 C   0  0  0  0  0  0  0  0  0  0  0  0
    2.7036   18.4418   20.6090 C   0  0  0  0  0  0  0  0  0  0  0  0
    3.1173   16.9884   20.8856 C   0  0  0  0  0  0  0  0  0  0  0  0
    1.0013   14.3805   22.6886 C   0  0  0  0  0  0  0  0  0  0  0  0
    0.5163   13.1963   22.1566 C   0  0  0  0  0  0  0  0  0  0  0  0
   -0.5409   12.8249   22.9402 N   0  0  0  0  0  0  0  0  0  0  0  0
   -1.3768   11.7160   22.8362 C   0  0  0  0  0  0  0  0  0  0  0  0
   -2.3634   11.5545   23.7346 C   0  0  0  0  0  0  0  0  0  0  0  0
   -2.5246   12.5454   24.7890 C   0  0  0  0  0  0  0  0  0  0  0  0
   -1.7098   13.6151   24.8816 C   0  0  0  0  0  0  0  0  0  0  0  0
   -0.6641   13.7909   23.9311 C   0  0  0  0  0  0  0  0  0  0  0  0
    0.2503   14.7283   23.8034 N   0  0  0  0  0  0  0  0  0  0  0  0
    3.8838   19.3219   20.3069 C   0  0  0  0  0  0  0  0  0  0  0  0
    4.2041   19.6042   19.0373 N   0  0  0  0  0  0  0  0  0  0  0  0
    5.2838   20.3944   19.1329 N   0  0  0  0  0  0  0  0  0  0  0  0
    5.6793   20.6194   20.4167 C   0  0  0  0  0  0  0  0  0  0  0  0
    4.7876   19.9325   21.2108 C   0  0  0  0  0  0  0  0  0  0  0  0
    5.7038   20.7440   18.2754 H   0  0  0  0  0  0  0  0  0  0  0  0
    6.8510   21.4554   20.7094 C   0  0  0  0  0  0  0  0  0  0  0  0
    6.9165   21.7940   22.0191 F   0  0  0  0  0  0  0  0  0  0  0  0
    8.0097   20.8253   20.3996 F   0  0  0  0  0  0  0  0  0  0  0  0
    6.8289   22.6135   20.0008 F   0  0  0  0  0  0  0  0  0  0  0  0
  1  2  2  0  0  0
  2  9  1  0  0  0
  9 10  2  0  0  0
 10 11  1  0  0  0
 11 12  1  0  0  0
 12 13  2  0  0  0
 13 14  1  0  0  0
 14 15  2  0  0  0
 15 16  1  0  0  0
 16 17  2  0  0  0
  2  3  1  0  0  0
  3  4  1  0  0  0
  4  5  1  0  0  0
  5  6  1  0  0  0
  6  7  1  0  0  0
  7 18  1  0  0  0
 18 19  2  0  0  0
 19 20  1  0  0  0
 20 21  1  0  0  0
 21 24  1  0  0  0
 24 25  1  0  0  0
 24 26  1  0  0  0
 24 27  1  0  0  0
 21 22  2  0  0  0
  7  8  1  0  0  0
 17  9  1  0  0  0
  8  3  1  0  0  0
 16 11  1  0  0  0
 22 18  1  0  0  0
 20 23  1  0  0  0
M  END
> <minimizedAffinity>
-3.36586

$$$$
OCNT-2309468


 25 26  0  0  0  0  0  0  0  0999 V2000
    3.1566   19.4049   19.7178 C   0  0  0  0  0  0  0  0  0  0  0  0
    3.4757   20.1534   18.7992 O   0  0  0  0  0  0  0  0  0  0  0  0
    1.8545   19.0123   19.9099 N   0  0  0  0  0  0  0  0  0  0  0  0
    1.6508   18.2488   20.5460 H   0  0  0  0  0  0  0  0  0  0  0  0
    5.2337   19.4824   21.1404 N   0  0  0  0  0  0  0  0  0  0  0  0
    5.8941   18.7570   22.0712 N   0  0  0  0  0  0  0  0  0  0  0  0
    5.1935   17.6314   22.1700 C   0  0  0  0  0  0  0  0  0  0  0  0
    4.0767   17.6283   21.3246 C   0  0  0  0  0  0  0  0  0  0  0  0
    4.0969   18.8503   20.6686 C   0  0  0  0  0  0  0  0  0  0  0  0
    5.7614   20.7970   20.7476 C   0  0  0  0  0  0  0  0  0  0  0  0
    7.9955   22.0514   20.2091 C   0  0  0  0  0  0  0  0  0  0  0  0
    7.2874   20.9427   20.9801 C   0  0  0  0  0  0  0  0  0  0  0  0
    4.8963   21.9172   21.3527 C   0  0  0  0  0  0  0  0  0  0  0  0
    5.1188   22.0984   22.8479 C   0  0  0  0  0  0  0  0  0  0  0  0
    0.7787   19.3176   18.9841 C   0  0  0  0  0  0  0  0  0  0  0  0
    0.1558   18.0617   18.3020 C   0  0  0  0  0  0  0  0  0  0  0  0
    0.7328   17.9069   16.8791 C   0  0  0  0  0  0  0  0  0  0  0  0
   -1.3639   18.3163   18.1993 C   0  0  0  0  0  0  0  0  0  0  0  0
    0.3980   16.7789   19.1155 C   0  0  0  0  0  0  0  0  0  0  0  0
   -0.3064   15.6054   18.8362 C   0  0  0  0  0  0  0  0  0  0  0  0
   -0.0689   14.4615   19.5966 C   0  0  0  0  0  0  0  0  0  0  0  0
    0.8695   14.4959   20.6247 C   0  0  0  0  0  0  0  0  0  0  0  0
    1.1237   13.2965   21.4796 C   0  0  0  0  0  0  0  0  0  0  0  0
    1.5226   15.6990   20.8443 C   0  0  0  0  0  0  0  0  0  0  0  0
    1.3160   16.8230   20.1176 N   0  0  0  0  0  0  0  0  0  0  0  0
 11 12  1  0  0  0
 12 10  1  0  0  0
 10 13  1  0  0  0
 13 14  1  0  0  0
 10  5  1  0  0  0
  5  6  1  0  0  0
  6  7  2  0  0  0
  7  8  1  0  0  0
  8  9  2  0  0  0
  9  1  1  0  0  0
  1  2  2  0  0  0
  1  3  1  0  0  0
  3 15  1  0  0  0
 15 16  1  0  0  0
 16 17  1  0  0  0
 16 18  1  0  0  0
 16 19  1  0  0  0
 19 20  2  0  0  0
 20 21  1  0  0  0
 21 22  2  0  0  0
 22 23  1  0  0  0
 22 24  1  0  0  0
 24 25  2  0  0  0
  9  5  1  0  0  0
 25 19  1  0  0  0
  3  4  1  0  0  0
M  END
> <minimizedAffinity>
-9.17552

$$$$
OCNT-2309471


 29 32  0  0  0  0  0  0  0  0999 V2000
    0.2989   19.6206   16.4589 O   0  0  0  0  0  0  0  0  0  0  0  0
    0.0025   18.8765   17.3889 C   0  0  0  0  0  0  0  0  0  0  0  0
    0.5889   18.8362   18.6321 N   0  0  0  0  0  0  0  0  0  0  0  0
    0.2619   18.1999   19.3404 H   0  0  0  0  0  0  0  0  0  0  0  0
    1.6195   19.6430   19.0831 C   0  0  0  0  0  0  0  0  0  0  0  0
    1.4149   20.8989   19.4838 N   0  0  0  0  0  0  0  0  0  0  0  0
    2.4893   21.5875   19.9141 C   0  0  0  0  0  0  0  0  0  0  0  0
    3.7689   21.0761   19.9501 C   0  0  0  0  0  0  0  0  0  0  0  0
    3.8620   19.7690   19.5138 C   0  0  0  0  0  0  0  0  0  0  0  0
    2.8170   19.0386   19.0759 N   0  0  0  0  0  0  0  0  0  0  0  0
    4.9749   21.8266   20.4564 C   0  0  0  0  0  0  0  0  0  0  0  0
    6.2663   21.1767   19.9224 C   0  0  0  0  0  0  0  0  0  0  0  0
    7.4862   21.6462   20.7053 C   0  0  0  0  0  0  0  0  0  0  0  0
    7.4064   21.2474   22.1784 C   0  0  0  0  0  0  0  0  0  0  0  0
    5.9760   21.0920   22.6959 C   0  0  0  0  0  0  0  0  0  0  0  0
    5.0019   22.0299   21.9883 C   0  0  0  0  0  0  0  0  0  0  0  0
   -1.1204   17.8592   17.2412 C   0  0  0  0  0  0  0  0  0  0  0  0
   -0.8023   16.5897   17.9476 C   0  0  0  0  0  0  0  0  0  0  0  0
   -0.4484   16.4180   19.2702 C   0  0  0  0  0  0  0  0  0  0  0  0
   -0.2580   15.0761   19.4527 N   0  0  0  0  0  0  0  0  0  0  0  0
   -0.4583   14.3575   18.3269 N   0  0  0  0  0  0  0  0  0  0  0  0
   -0.7953   15.2773   17.4215 C   0  0  0  0  0  0  0  0  0  0  0  0
    0.1718   14.4142   20.6768 C   0  0  0  0  0  0  0  0  0  0  0  0
    1.5443   14.8696   21.1079 C   0  0  0  0  0  0  0  0  0  0  0  0
    2.4268   13.9734   21.7304 C   0  0  0  0  0  0  0  0  0  0  0  0
    3.6979   14.3902   22.1269 C   0  0  0  0  0  0  0  0  0  0  0  0
    4.1026   15.7041   21.9033 C   0  0  0  0  0  0  0  0  0  0  0  0
    3.2353   16.6044   21.2877 C   0  0  0  0  0  0  0  0  0  0  0  0
    1.9618   16.1911   20.8922 C   0  0  0  0  0  0  0  0  0  0  0  0
  1  2  2  0  0  0
  2 17  1  0  0  0
 17 18  1  0  0  0
 18 19  2  0  0  0
 19 20  1  0  0  0
 20 23  1  0  0  0
 23 24  1  0  0  0
 24 25  2  0  0  0
 25 26  1  0  0  0
 26 27  2  0  0  0
 27 28  1  0  0  0
 28 29  2  0  0  0
 20 21  1  0  0  0
 21 22  2  0  0  0
  2  3  1  0  0  0
  3  5  1  0  0  0
  5  6  2  0  0  0
  6  7  1  0  0  0
  7  8  2  0  0  0
  8 11  1  0  0  0
 11 12  1  0  0  0
 12 13  1  0  0  0
 13 14  1  0  0  0
 14 15  1  0  0  0
 15 16  1  0  0  0
  8  9  1  0  0  0
  9 10  2  0  0  0
 22 18  1  0  0  0
 10  5  1  0  0  0
 29 24  1  0  0  0
 16 11  1  0  0  0
  3  4  1  0  0  0
M  END
> <minimizedAffinity>
-9.56237

$$$$
OCNT-2309480


 30 34  0  0  0  0  0  0  0  0999 V2000
    0.9296   15.2958   20.1185 C   0  0  0  0  0  0  0  0  0  0  0  0
    0.7836   14.0712   20.7687 C   0  0  0  0  0  0  0  0  0  0  0  0
    1.6254   13.7303   21.8291 C   0  0  0  0  0  0  0  0  0  0  0  0
    2.6211   14.6129   22.2462 C   0  0  0  0  0  0  0  0  0  0  0  0
    2.7901   15.8491   21.6091 C   0  0  0  0  0  0  0  0  0  0  0  0
    1.9327   16.1786   20.5451 C   0  0  0  0  0  0  0  0  0  0  0  0
    3.8393   16.7530   22.0648 C   0  0  0  0  0  0  0  0  0  0  0  0
    4.9766   17.0844   21.4903 N   0  0  0  0  0  0  0  0  0  0  0  0
    5.5309   17.9438   22.4081 C   0  0  0  0  0  0  0  0  0  0  0  0
    4.7694   18.1840   23.4844 N   0  0  0  0  0  0  0  0  0  0  0  0
    3.6473   17.3824   23.2646 O   0  0  0  0  0  0  0  0  0  0  0  0
    6.8508   18.5841   22.2078 C   0  0  0  0  0  0  0  0  0  0  0  0
    6.6941   19.8994   21.6168 N   0  0  0  0  0  0  0  0  0  0  0  0
    7.5997   20.9196   21.7196 C   0  0  0  0  0  0  0  0  0  0  0  0
    7.1663   22.0138   21.1367 N   0  0  0  0  0  0  0  0  0  0  0  0
    5.9354   21.6856   20.6225 C   0  0  0  0  0  0  0  0  0  0  0  0
    5.0325   22.4752   19.8951 C   0  0  0  0  0  0  0  0  0  0  0  0
    3.8260   21.9043   19.4725 C   0  0  0  0  0  0  0  0  0  0  0  0
    3.5245   20.5734   19.7670 C   0  0  0  0  0  0  0  0  0  0  0  0
    4.4111   19.7692   20.4931 C   0  0  0  0  0  0  0  0  0  0  0  0
    5.6100   20.3609   20.9087 C   0  0  0  0  0  0  0  0  0  0  0  0
   -0.4420   17.9102   19.6201 O   0  0  0  0  0  0  0  0  0  0  0  0
   -0.4954   16.9445   18.8657 C   0  0  0  0  0  0  0  0  0  0  0  0
    0.1180   15.7151   19.0502 N   0  0  0  0  0  0  0  0  0  0  0  0
   -0.1169   15.0303   18.3344 H   0  0  0  0  0  0  0  0  0  0  0  0
   -1.2468   16.9929   17.5179 C   0  0  0  0  0  0  0  0  0  0  0  0
   -0.3590   17.4237   16.3623 C   0  0  0  0  0  0  0  0  0  0  0  0
   -0.5891   18.9143   16.3246 C   0  0  0  0  0  0  0  0  0  0  0  0
   -2.0552   19.0150   16.6790 C   0  0  0  0  0  0  0  0  0  0  0  0
   -2.3396   17.9330   17.5788 O   0  0  0  0  0  0  0  0  0  0  0  0
 22 23  2  0  0  0
 23 24  1  0  0  0
 24  1  1  0  0  0
  1  2  2  0  0  0
  2  3  1  0  0  0
  3  4  2  0  0  0
  4  5  1  0  0  0
  5  7  1  0  0  0
  7  8  2  0  0  0
  8  9  1  0  0  0
  9 12  1  0  0  0
 12 13  1  0  0  0
 13 14  1  0  0  0
 14 15  2  0  0  0
 15 16  1  0  0  0
 16 17  2  0  0  0
 17 18  1  0  0  0
 18 19  2  0  0  0
 19 20  1  0  0  0
 20 21  2  0  0  0
  9 10  2  0  0  0
 10 11  1  0  0  0
  5  6  2  0  0  0
 23 26  1  0  0  0
 26 27  1  0  0  0
 27 28  1  0  0  0
 28 29  1  0  0  0
 29 30  1  0  0  0
  6  1  1  0  0  0
 30 26  1  0  0  0
 11  7  1  0  0  0
 21 13  1  0  0  0
 21 16  1  0  0  0
 24 25  1  0  0  0
M  END
> <minimizedAffinity>
-8.55989

$$$$
OCNT-2309491


 29 33  0  0  0  0  0  0  0  0999 V2000
    0.2261   14.1916   20.8954 C   0  0  0  0  0  0  0  0  0  0  0  0
    1.6215   14.5628   21.2621 C   0  0  0  0  0  0  0  0  0  0  0  0
    2.6220   13.6983   21.6623 C   0  0  0  0  0  0  0  0  0  0  0  0
    4.0538   14.5708   21.9908 S   0  0  0  0  0  0  0  0  0  0  0  0
    3.2590   16.0496   21.5814 C   0  0  0  0  0  0  0  0  0  0  0  0
    1.9959   15.8994   21.2134 N   0  0  0  0  0  0  0  0  0  0  0  0
    3.9439   17.3610   21.6552 C   0  0  0  0  0  0  0  0  0  0  0  0
    4.5059   17.7652   22.8968 C   0  0  0  0  0  0  0  0  0  0  0  0
    5.1815   18.9846   23.0418 C   0  0  0  0  0  0  0  0  0  0  0  0
    5.2901   19.7881   21.9300 C   0  0  0  0  0  0  0  0  0  0  0  0
    5.9139   20.9956   21.8734 O   0  0  0  0  0  0  0  0  0  0  0  0
    5.7434   21.3246   20.4763 C   0  0  0  0  0  0  0  0  0  0  0  0
    4.9774   20.3440   19.7477 O   0  0  0  0  0  0  0  0  0  0  0  0
    4.7550   19.4171   20.7205 C   0  0  0  0  0  0  0  0  0  0  0  0
    4.0792   18.2229   20.5506 C   0  0  0  0  0  0  0  0  0  0  0  0
   -0.4268   14.2776   18.5788 O   0  0  0  0  0  0  0  0  0  0  0  0
   -0.2049   14.8907   19.6223 C   0  0  0  0  0  0  0  0  0  0  0  0
   -0.3306   16.2581   19.7404 N   0  0  0  0  0  0  0  0  0  0  0  0
   -0.2160   16.6609   20.6644 H   0  0  0  0  0  0  0  0  0  0  0  0
   -0.9010   17.0852   18.6773 C   0  0  0  0  0  0  0  0  0  0  0  0
   -0.0501   16.9753   17.3837 C   0  0  0  0  0  0  0  0  0  0  0  0
    1.3609   17.5902   17.5070 C   0  0  0  0  0  0  0  0  0  0  0  0
    1.2855   18.8521   18.2818 C   0  0  0  0  0  0  0  0  0  0  0  0
    0.2216   19.2974   19.0340 C   0  0  0  0  0  0  0  0  0  0  0  0
    0.6639   20.5131   19.5837 C   0  0  0  0  0  0  0  0  0  0  0  0
    1.9132   20.8109   19.2089 N   0  0  0  0  0  0  0  0  0  0  0  0
    2.2685   19.7862   18.4102 N   0  0  0  0  0  0  0  0  0  0  0  0
   -1.0693   18.5626   19.1400 C   0  0  0  0  0  0  0  0  0  0  0  0
    3.1949   19.7972   17.9959 H   0  0  0  0  0  0  0  0  0  0  0  0
 16 17  2  0  0  0
 17  1  1  0  0  0
  1  2  1  0  0  0
  2  3  2  0  0  0
  3  4  1  0  0  0
  4  5  1  0  0  0
  5  7  1  0  0  0
  7  8  1  0  0  0
  8  9  2  0  0  0
  9 10  1  0  0  0
 10 11  1  0  0  0
 11 12  1  0  0  0
 12 13  1  0  0  0
 13 14  1  0  0  0
 14 15  1  0  0  0
  5  6  2  0  0  0
 17 18  1  0  0  0
 18 20  1  0  0  0
 20 21  1  0  0  0
 21 22  1  0  0  0
 22 23  1  0  0  0
 23 24  2  0  0  0
 24 25  1  0  0  0
 25 26  2  0  0  0
 26 27  1  0  0  0
 24 28  1  0  0  0
  6  2  1  0  0  0
 28 20  1  0  0  0
 15  7  2  0  0  0
 27 23  1  0  0  0
 14 10  2  0  0  0
 18 19  1  0  0  0
 27 29  1  0  0  0
M  END
> <minimizedAffinity>
-6.86731

$$$$
OCNT-2309495


 26 28  0  0  0  0  0  0  0  0999 V2000
    1.3771   14.6968   21.0338 C   0  0  0  0  0  0  0  0  0  0  0  0
    2.1987   14.0216   21.6488 O   0  0  0  0  0  0  0  0  0  0  0  0
    1.5315   16.0134   20.6326 N   0  0  0  0  0  0  0  0  0  0  0  0
    0.7155   16.4310   20.1865 H   0  0  0  0  0  0  0  0  0  0  0  0
    2.6295   16.8646   20.8520 C   0  0  0  0  0  0  0  0  0  0  0  0
    2.7462   17.9840   20.0225 C   0  0  0  0  0  0  0  0  0  0  0  0
    3.8082   18.8860   20.1723 C   0  0  0  0  0  0  0  0  0  0  0  0
    4.7740   18.6849   21.1622 C   0  0  0  0  0  0  0  0  0  0  0  0
    4.6653   17.5521   21.9825 C   0  0  0  0  0  0  0  0  0  0  0  0
    3.5989   16.6545   21.8297 C   0  0  0  0  0  0  0  0  0  0  0  0
    5.8715   19.5829   21.3296 N   0  0  0  0  0  0  0  0  0  0  0  0
    6.8859   19.4238   22.2538 C   0  0  0  0  0  0  0  0  0  0  0  0
    7.8112   20.3497   22.1693 N   0  0  0  0  0  0  0  0  0  0  0  0
    7.3924   21.1822   21.1713 C   0  0  0  0  0  0  0  0  0  0  0  0
    8.1941   22.3776   20.8173 C   0  0  0  0  0  0  0  0  0  0  0  0
    6.1790   20.7588   20.6476 C   0  0  0  0  0  0  0  0  0  0  0  0
    5.3282   21.4463   19.6429 C   0  0  0  0  0  0  0  0  0  0  0  0
    0.0640   14.0825   20.5814 C   0  0  0  0  0  0  0  0  0  0  0  0
   -0.7340   16.3064   17.7671 C   0  0  0  0  0  0  0  0  0  0  0  0
   -1.1344   15.4589   16.7487 C   0  0  0  0  0  0  0  0  0  0  0  0
   -1.1325   14.0901   16.9901 C   0  0  0  0  0  0  0  0  0  0  0  0
   -0.7313   13.6181   18.2358 C   0  0  0  0  0  0  0  0  0  0  0  0
   -0.3395   14.5377   19.2047 C   0  0  0  0  0  0  0  0  0  0  0  0
   -0.3512   15.8807   18.9921 N   0  0  0  0  0  0  0  0  0  0  0  0
   -0.4586   18.4736   18.6090 C   0  0  0  0  0  0  0  0  0  0  0  0
   -0.7610   17.6567   17.4835 O   0  0  0  0  0  0  0  0  0  0  0  0
 25 26  1  0  0  0
 26 19  1  0  0  0
 19 20  1  0  0  0
 20 21  2  0  0  0
 21 22  1  0  0  0
 22 23  2  0  0  0
 23 18  1  0  0  0
 18  1  1  0  0  0
  1  2  2  0  0  0
  1  3  1  0  0  0
  3  5  1  0  0  0
  5  6  1  0  0  0
  6  7  2  0  0  0
  7  8  1  0  0  0
  8 11  1  0  0  0
 11 12  1  0  0  0
 12 13  2  0  0  0
 13 14  1  0  0  0
 14 15  1  0  0  0
 14 16  2  0  0  0
 16 17  1  0  0  0
  8  9  2  0  0  0
  9 10  1  0  0  0
 23 24  1  0  0  0
 24 19  2  0  0  0
 10  5  2  0  0  0
 16 11  1  0  0  0
  3  4  1  0  0  0
M  END
> <minimizedAffinity>
-6.65992

$$$$
OCNT-2309500


 25 27  0  0  0  0  0  0  0  0999 V2000
    1.7450   18.4707   18.6248 N   0  0  0  0  0  0  0  0  0  0  0  0
    0.5697   19.1819   18.3935 C   0  0  0  0  0  0  0  0  0  0  0  0
    0.2975   20.2830   18.8637 O   0  0  0  0  0  0  0  0  0  0  0  0
    1.8217   17.5872   18.1244 H   0  0  0  0  0  0  0  0  0  0  0  0
    6.8944   18.6202   22.6065 C   0  0  0  0  0  0  0  0  0  0  0  0
    6.1434   19.6964   21.9777 N   0  0  0  0  0  0  0  0  0  0  0  0
    6.5524   21.0091   22.2095 C   0  0  0  0  0  0  0  0  0  0  0  0
    7.5515   21.3070   22.8658 O   0  0  0  0  0  0  0  0  0  0  0  0
    5.6310   22.0933   21.7023 C   0  0  0  0  0  0  0  0  0  0  0  0
    5.0925   21.7586   20.3299 C   0  0  0  0  0  0  0  0  0  0  0  0
    4.4671   20.3934   20.3452 C   0  0  0  0  0  0  0  0  0  0  0  0
    3.3838   20.1105   19.4927 C   0  0  0  0  0  0  0  0  0  0  0  0
    2.8340   18.8312   19.4398 C   0  0  0  0  0  0  0  0  0  0  0  0
    3.3906   17.8299   20.2397 C   0  0  0  0  0  0  0  0  0  0  0  0
    4.4787   18.1020   21.0785 C   0  0  0  0  0  0  0  0  0  0  0  0
    5.0267   19.3873   21.1456 C   0  0  0  0  0  0  0  0  0  0  0  0
   -0.3795   18.4222   17.4480 C   0  0  0  0  0  0  0  0  0  0  0  0
   -1.4246   19.2162   17.0540 F   0  0  0  0  0  0  0  0  0  0  0  0
    0.2790   18.1162   16.2787 F   0  0  0  0  0  0  0  0  0  0  0  0
   -0.9909   17.1152   17.9876 C   0  0  0  0  0  0  0  0  0  0  0  0
   -2.4304   17.2903   18.1934 O   0  0  0  0  0  0  0  0  0  0  0  0
   -0.6437   15.8216   17.1867 C   0  0  0  0  0  0  0  0  0  0  0  0
   -0.5518   15.0785   18.5323 C   0  0  0  0  0  0  0  0  0  0  0  0
   -0.2947   16.4369   19.2112 C   0  0  0  0  0  0  0  0  0  0  0  0
   -2.5075   18.0737   18.7705 H   0  0  0  0  0  0  0  0  0  0  0  0
  5  6  1  0  0  0
  6  7  1  0  0  0
  7  8  2  0  0  0
  7  9  1  0  0  0
  9 10  1  0  0  0
 10 11  1  0  0  0
 11 12  1  0  0  0
 12 13  2  0  0  0
 13  1  1  0  0  0
  1  2  1  0  0  0
  2  3  2  0  0  0
  2 17  1  0  0  0
 17 18  1  0  0  0
 17 19  1  0  0  0
 17 20  1  0  0  0
 20 21  1  0  0  0
 20 22  1  0  0  0
 22 23  1  0  0  0
 23 24  1  0  0  0
 13 14  1  0  0  0
 14 15  2  0  0  0
 15 16  1  0  0  0
 16  6  1  0  0  0
 16 11  2  0  0  0
 24 20  1  0  0  0
  1  4  1  0  0  0
 21 25  1  0  0  0
M  END
> <minimizedAffinity>
-9.47161

$$$$
OCNT-2309501


 26 28  0  0  0  0  0  0  0  0999 V2000
    3.2819   17.4272   21.3901 N   0  0  0  0  0  0  0  0  0  0  0  0
    4.0737   16.3352   21.6967 C   0  0  0  0  0  0  0  0  0  0  0  0
    5.2883   16.2300   21.5491 O   0  0  0  0  0  0  0  0  0  0  0  0
    2.2997   17.3920   21.6206 H   0  0  0  0  0  0  0  0  0  0  0  0
    4.6805   20.5021   20.6234 N   0  0  0  0  0  0  0  0  0  0  0  0
    4.0620   20.2783   19.4272 C   0  0  0  0  0  0  0  0  0  0  0  0
    3.4377   19.0604   19.5549 C   0  0  0  0  0  0  0  0  0  0  0  0
    3.7326   18.6200   20.8686 C   0  0  0  0  0  0  0  0  0  0  0  0
    4.4966   19.5060   21.5038 N   0  0  0  0  0  0  0  0  0  0  0  0
    5.4778   21.6662   21.0139 C   0  0  0  0  0  0  0  0  0  0  0  0
    5.1914   22.0559   22.4654 C   0  0  0  0  0  0  0  0  0  0  0  0
    7.6459   20.5603   21.7974 C   0  0  0  0  0  0  0  0  0  0  0  0
    6.9712   21.4188   20.7372 C   0  0  0  0  0  0  0  0  0  0  0  0
    3.2712   15.1502   22.2208 C   0  0  0  0  0  0  0  0  0  0  0  0
    1.9891   14.9341   21.4911 C   0  0  0  0  0  0  0  0  0  0  0  0
    1.5818   15.4938   20.2970 C   0  0  0  0  0  0  0  0  0  0  0  0
    0.3492   14.9660   20.0216 N   0  0  0  0  0  0  0  0  0  0  0  0
   -0.0967   14.1414   20.9904 N   0  0  0  0  0  0  0  0  0  0  0  0
    0.9123   14.0952   21.8620 C   0  0  0  0  0  0  0  0  0  0  0  0
   -0.4893   15.2563   18.8649 C   0  0  0  0  0  0  0  0  0  0  0  0
   -0.3364   16.6837   18.4011 C   0  0  0  0  0  0  0  0  0  0  0  0
   -0.2249   17.7268   19.3334 C   0  0  0  0  0  0  0  0  0  0  0  0
   -0.0765   19.0468   18.9066 C   0  0  0  0  0  0  0  0  0  0  0  0
   -0.0338   19.3388   17.5451 C   0  0  0  0  0  0  0  0  0  0  0  0
   -0.1391   18.3118   16.6090 C   0  0  0  0  0  0  0  0  0  0  0  0
   -0.2882   16.9901   17.0332 C   0  0  0  0  0  0  0  0  0  0  0  0
 12 13  1  0  0  0
 13 10  1  0  0  0
 10 11  1  0  0  0
 10  5  1  0  0  0
  5  6  1  0  0  0
  6  7  2  0  0  0
  7  8  1  0  0  0
  8  1  1  0  0  0
  1  2  1  0  0  0
  2  3  2  0  0  0
  2 14  1  0  0  0
 14 15  1  0  0  0
 15 16  2  0  0  0
 16 17  1  0  0  0
 17 20  1  0  0  0
 20 21  1  0  0  0
 21 22  2  0  0  0
 22 23  1  0  0  0
 23 24  2  0  0  0
 24 25  1  0  0  0
 25 26  2  0  0  0
 17 18  1  0  0  0
 18 19  2  0  0  0
  8  9  2  0  0  0
  9  5  1  0  0  0
 19 15  1  0  0  0
 26 21  1  0  0  0
  1  4  1  0  0  0
M  END
> <minimizedAffinity>
-9.45352

$$$$
OCNT-2309502


 23 26  0  0  0  0  0  0  0  0999 V2000
   -0.5442   14.0503   19.5472 O   0  0  0  0  0  0  0  0  0  0  0  0
    0.3405   14.8617   19.8260 C   0  0  0  0  0  0  0  0  0  0  0  0
    1.5380   14.4294   20.6411 C   0  0  0  0  0  0  0  0  0  0  0  0
    2.0582   15.5453   21.5202 C   0  0  0  0  0  0  0  0  0  0  0  0
    2.2809   16.7834   20.7028 C   0  0  0  0  0  0  0  0  0  0  0  0
    1.3964   17.0822   19.6600 C   0  0  0  0  0  0  0  0  0  0  0  0
    1.5229   18.2982   18.9731 C   0  0  0  0  0  0  0  0  0  0  0  0
    2.5733   19.1735   19.2966 C   0  0  0  0  0  0  0  0  0  0  0  0
    3.4794   18.8840   20.3290 C   0  0  0  0  0  0  0  0  0  0  0  0
    3.3056   17.6829   21.0346 C   0  0  0  0  0  0  0  0  0  0  0  0
    0.5656   18.6615   17.8709 C   0  0  0  0  0  0  0  0  0  0  0  0
   -0.7885   18.0211   18.1289 C   0  0  0  0  0  0  0  0  0  0  0  0
   -0.6206   16.5221   18.3172 C   0  0  0  0  0  0  0  0  0  0  0  0
    0.3630   16.1631   19.3330 N   0  0  0  0  0  0  0  0  0  0  0  0
    4.5727   19.8114   20.6681 C   0  0  0  0  0  0  0  0  0  0  0  0
    4.5936   21.1218   20.1529 C   0  0  0  0  0  0  0  0  0  0  0  0
    5.6286   22.0118   20.4687 C   0  0  0  0  0  0  0  0  0  0  0  0
    6.6669   21.6106   21.3066 C   0  0  0  0  0  0  0  0  0  0  0  0
    6.6602   20.3234   21.8223 C   0  0  0  0  0  0  0  0  0  0  0  0
    7.6868   19.9434   22.6409 O   0  0  0  0  0  0  0  0  0  0  0  0
    5.6292   19.4362   21.5106 C   0  0  0  0  0  0  0  0  0  0  0  0
    5.6816   18.2001   22.0359 F   0  0  0  0  0  0  0  0  0  0  0  0
    7.5205   19.0143   22.8889 H   0  0  0  0  0  0  0  0  0  0  0  0
  1  2  2  0  0  0
  2  3  1  0  0  0
  3  4  1  0  0  0
  4  5  1  0  0  0
  5  6  2  0  0  0
  6  7  1  0  0  0
  7  8  2  0  0  0
  8  9  1  0  0  0
  9 15  1  0  0  0
 15 16  2  0  0  0
 16 17  1  0  0  0
 17 18  2  0  0  0
 18 19  1  0  0  0
 19 20  1  0  0  0
 19 21  2  0  0  0
 21 22  1  0  0  0
  9 10  2  0  0  0
  7 11  1  0  0  0
 11 12  1  0  0  0
 12 13  1  0  0  0
 13 14  1  0  0  0
 14  2  1  0  0  0
 10  5  1  0  0  0
 14  6  1  0  0  0
 21 15  1  0  0  0
 20 23  1  0  0  0
M  END
> <minimizedAffinity>
-12.70784

$$$$
OCNT-2309503


 25 27  0  0  0  0  0  0  0  0999 V2000
    3.4000   18.0131   21.0459 N   0  0  0  0  0  0  0  0  0  0  0  0
    4.0477   16.8602   21.4367 C   0  0  0  0  0  0  0  0  0  0  0  0
    5.2364   16.7668   21.7152 O   0  0  0  0  0  0  0  0  0  0  0  0
    2.3990   17.9941   20.9760 H   0  0  0  0  0  0  0  0  0  0  0  0
    2.4268   20.0314   18.8898 C   0  0  0  0  0  0  0  0  0  0  0  0
    3.5631   20.1600   19.8319 C   0  0  0  0  0  0  0  0  0  0  0  0
    4.4241   21.2313   19.9549 C   0  0  0  0  0  0  0  0  0  0  0  0
    5.3061   20.9039   20.9408 N   0  0  0  0  0  0  0  0  0  0  0  0
    5.0623   19.6983   21.4730 N   0  0  0  0  0  0  0  0  0  0  0  0
    3.9999   19.2333   20.8201 C   0  0  0  0  0  0  0  0  0  0  0  0
    6.4108   21.6942   21.4764 C   0  0  0  0  0  0  0  0  0  0  0  0
    6.8824   21.2396   22.8593 C   0  0  0  0  0  0  0  0  0  0  0  0
    7.5815   21.7145   20.4925 C   0  0  0  0  0  0  0  0  0  0  0  0
    3.1464   15.7113   21.5398 C   0  0  0  0  0  0  0  0  0  0  0  0
    3.3988   14.4552   22.0875 C   0  0  0  0  0  0  0  0  0  0  0  0
    2.2356   13.6643   21.9694 C   0  0  0  0  0  0  0  0  0  0  0  0
    1.2865   14.4391   21.3518 C   0  0  0  0  0  0  0  0  0  0  0  0
    1.8205   15.6900   21.1257 N   0  0  0  0  0  0  0  0  0  0  0  0
    1.0853   16.7538   20.4407 C   0  0  0  0  0  0  0  0  0  0  0  0
    0.3358   16.2397   19.2391 C   0  0  0  0  0  0  0  0  0  0  0  0
   -0.0563   14.9021   19.1538 C   0  0  0  0  0  0  0  0  0  0  0  0
   -0.7355   14.4761   18.0240 C   0  0  0  0  0  0  0  0  0  0  0  0
   -1.0464   15.2805   16.9860 N   0  0  0  0  0  0  0  0  0  0  0  0
   -0.6593   16.5668   17.0832 C   0  0  0  0  0  0  0  0  0  0  0  0
    0.0203   17.0875   18.1722 C   0  0  0  0  0  0  0  0  0  0  0  0
  5  6  1  0  0  0
  6  7  2  0  0  0
  7  8  1  0  0  0
  8 11  1  0  0  0
 11 12  1  0  0  0
 11 13  1  0  0  0
  8  9  1  0  0  0
  9 10  2  0  0  0
 10  1  1  0  0  0
  1  2  1  0  0  0
  2  3  2  0  0  0
  2 14  1  0  0  0
 14 15  2  0  0  0
 15 16  1  0  0  0
 16 17  2  0  0  0
 17 18  1  0  0  0
 18 19  1  0  0  0
 19 20  1  0  0  0
 20 21  2  0  0  0
 21 22  1  0  0  0
 22 23  2  0  0  0
 23 24  1  0  0  0
 24 25  2  0  0  0
 10  6  1  0  0  0
 18 14  1  0  0  0
 25 20  1  0  0  0
  1  4  1  0  0  0
M  END
> <minimizedAffinity>
-8.99772

$$$$
OCNT-2309511


 27 29  0  0  0  0  0  0  0  0999 V2000
    2.4605   17.7074   20.4991 C   0  0  0  0  0  0  0  0  0  0  0  0
    1.9024   16.2961   20.6923 C   0  0  0  0  0  0  0  0  0  0  0  0
    2.4885   15.4473   21.6458 C   0  0  0  0  0  0  0  0  0  0  0  0
    1.9933   14.1586   21.8520 C   0  0  0  0  0  0  0  0  0  0  0  0
    0.9028   13.7030   21.1148 C   0  0  0  0  0  0  0  0  0  0  0  0
    0.3012   14.5366   20.1753 C   0  0  0  0  0  0  0  0  0  0  0  0
    0.7922   15.8266   19.9685 C   0  0  0  0  0  0  0  0  0  0  0  0
    0.8657   17.7565   18.6374 N   0  0  0  0  0  0  0  0  0  0  0  0
    1.4310   18.5087   19.6453 C   0  0  0  0  0  0  0  0  0  0  0  0
    1.1651   19.6838   19.8950 O   0  0  0  0  0  0  0  0  0  0  0  0
    1.2337   16.8263   18.4779 H   0  0  0  0  0  0  0  0  0  0  0  0
   -3.2996   19.0827   16.2127 C   0  0  0  0  0  0  0  0  0  0  0  0
   -1.9643   18.7496   16.7359 C   0  0  0  0  0  0  0  0  0  0  0  0
   -1.4936   18.2761   17.9348 C   0  0  0  0  0  0  0  0  0  0  0  0
   -0.0968   18.1790   17.7551 C   0  0  0  0  0  0  0  0  0  0  0  0
    0.2550   18.5700   16.5249 N   0  0  0  0  0  0  0  0  0  0  0  0
   -0.9185   18.9283   15.8873 O   0  0  0  0  0  0  0  0  0  0  0  0
    3.8377   17.7587   19.8751 N   0  0  0  0  0  0  0  0  0  0  0  0
    4.0765   19.1082   19.3185 C   0  0  0  0  0  0  0  0  0  0  0  0
    4.8857   17.4688   20.8874 C   0  0  0  0  0  0  0  0  0  0  0  0
    4.5626   18.1273   22.2381 C   0  0  0  0  0  0  0  0  0  0  0  0
    5.7338   18.9450   22.7884 C   0  0  0  0  0  0  0  0  0  0  0  0
    6.0194   20.1497   22.0389 N   0  0  0  0  0  0  0  0  0  0  0  0
    7.1933   20.4506   21.4075 C   0  0  0  0  0  0  0  0  0  0  0  0
    6.9751   21.6756   20.8215 C   0  0  0  0  0  0  0  0  0  0  0  0
    5.6993   22.1124   21.0678 N   0  0  0  0  0  0  0  0  0  0  0  0
    5.1470   21.1727   21.8014 C   0  0  0  0  0  0  0  0  0  0  0  0
 12 13  1  0  0  0
 13 14  2  0  0  0
 14 15  1  0  0  0
 15  8  1  0  0  0
  8  9  1  0  0  0
  9 10  2  0  0  0
  9  1  1  0  0  0
  1  2  1  0  0  0
  2  3  2  0  0  0
  3  4  1  0  0  0
  4  5  2  0  0  0
  5  6  1  0  0  0
  6  7  2  0  0  0
  1 18  1  0  0  0
 18 19  1  0  0  0
 18 20  1  0  0  0
 20 21  1  0  0  0
 21 22  1  0  0  0
 22 23  1  0  0  0
 23 24  1  0  0  0
 24 25  2  0  0  0
 25 26  1  0  0  0
 26 27  2  0  0  0
 15 16  2  0  0  0
 16 17  1  0  0  0
 17 13  1  0  0  0
  7  2  1  0  0  0
 27 23  1  0  0  0
  8 11  1  0  0  0
M  END
> <minimizedAffinity>
-8.49151

$$$$
OCNT-2309518


 28 30  0  0  0  0  0  0  0  0999 V2000
    4.1144   17.2624   21.7554 N   0  0  0  0  0  0  0  0  0  0  0  0
    3.0875   16.7973   20.9619 C   0  0  0  0  0  0  0  0  0  0  0  0
    2.7802   17.2738   19.8716 O   0  0  0  0  0  0  0  0  0  0  0  0
    2.3943   15.7128   21.4922 N   0  0  0  0  0  0  0  0  0  0  0  0
    2.6008   15.1404   22.8312 C   0  0  0  0  0  0  0  0  0  0  0  0
    1.6448   13.9795   23.1661 C   0  0  0  0  0  0  0  0  0  0  0  0
    0.2533   14.3826   22.9212 N   0  0  0  0  0  0  0  0  0  0  0  0
   -0.0179   15.0838   21.6490 C   0  0  0  0  0  0  0  0  0  0  0  0
    1.2369   15.1894   20.7595 C   0  0  0  0  0  0  0  0  0  0  0  0
    4.4160   16.6576   22.4990 H   0  0  0  0  0  0  0  0  0  0  0  0
    7.5223   21.8244   21.1188 C   0  0  0  0  0  0  0  0  0  0  0  0
    6.6017   20.6442   21.2661 C   0  0  0  0  0  0  0  0  0  0  0  0
    6.9794   19.5658   22.0755 C   0  0  0  0  0  0  0  0  0  0  0  0
    6.1400   18.4601   22.2174 C   0  0  0  0  0  0  0  0  0  0  0  0
    4.9115   18.4112   21.5524 C   0  0  0  0  0  0  0  0  0  0  0  0
    4.5292   19.4943   20.7551 C   0  0  0  0  0  0  0  0  0  0  0  0
    5.3689   20.6028   20.5912 C   0  0  0  0  0  0  0  0  0  0  0  0
    5.0894   21.6983   19.8173 O   0  0  0  0  0  0  0  0  0  0  0  0
    3.7545   22.2157   19.7869 C   0  0  0  0  0  0  0  0  0  0  0  0
    2.7039   21.1134   19.7390 C   0  0  0  0  0  0  0  0  0  0  0  0
    2.8292   20.3873   18.5988 F   0  0  0  0  0  0  0  0  0  0  0  0
    1.4471   21.6162   19.7522 F   0  0  0  0  0  0  0  0  0  0  0  0
   -0.7263   13.5162   23.4036 C   0  0  0  0  0  0  0  0  0  0  0  0
   -1.5634   13.8596   24.4747 C   0  0  0  0  0  0  0  0  0  0  0  0
   -2.5269   13.0519   24.9920 N   0  0  0  0  0  0  0  0  0  0  0  0
   -2.6258   11.8451   24.4041 C   0  0  0  0  0  0  0  0  0  0  0  0
   -1.8054   11.4717   23.3579 C   0  0  0  0  0  0  0  0  0  0  0  0
   -0.8515   12.2877   22.8478 N   0  0  0  0  0  0  0  0  0  0  0  0
 11 12  1  0  0  0
 12 13  1  0  0  0
 13 14  2  0  0  0
 14 15  1  0  0  0
 15  1  1  0  0  0
  1  2  1  0  0  0
  2  3  2  0  0  0
  2  4  1  0  0  0
  4  5  1  0  0  0
  5  6  1  0  0  0
  6  7  1  0  0  0
  7 23  1  0  0  0
 23 24  2  0  0  0
 24 25  1  0  0  0
 25 26  2  0  0  0
 26 27  1  0  0  0
 27 28  2  0  0  0
  7  8  1  0  0  0
  8  9  1  0  0  0
 15 16  2  0  0  0
 16 17  1  0  0  0
 17 18  1  0  0  0
 18 19  1  0  0  0
 19 20  1  0  0  0
 20 21  1  0  0  0
 20 22  1  0  0  0
 17 12  2  0  0  0
  9  4  1  0  0  0
 28 23  1  0  0  0
  1 10  1  0  0  0
M  END
> <minimizedAffinity>
-2.31385

$$$$
OCNT-2309526


 25 27  0  0  0  0  0  0  0  0999 V2000
    0.1684   14.6756   21.7797 C   0  0  0  0  0  0  0  0  0  0  0  0
    1.2281   15.3180   21.0184 N   0  0  0  0  0  0  0  0  0  0  0  0
    2.4858   15.3428   21.6051 C   0  0  0  0  0  0  0  0  0  0  0  0
    2.7739   14.6021   22.5455 O   0  0  0  0  0  0  0  0  0  0  0  0
    3.3905   16.2726   21.0983 N   0  0  0  0  0  0  0  0  0  0  0  0
    4.7647   16.2080   21.5777 C   0  0  0  0  0  0  0  0  0  0  0  0
    4.9829   17.1444   22.7634 C   0  0  0  0  0  0  0  0  0  0  0  0
    4.2713   18.4988   22.5865 C   0  0  0  0  0  0  0  0  0  0  0  0
    3.8567   18.7203   21.1293 C   0  0  0  0  0  0  0  0  0  0  0  0
    2.9489   17.5941   20.6412 C   0  0  0  0  0  0  0  0  0  0  0  0
    1.0785   15.3177   19.5612 C   0  0  0  0  0  0  0  0  0  0  0  0
    0.2804   16.4832   19.0148 C   0  0  0  0  0  0  0  0  0  0  0  0
   -0.6626   16.2906   17.9937 C   0  0  0  0  0  0  0  0  0  0  0  0
   -1.3804   17.3711   17.4777 C   0  0  0  0  0  0  0  0  0  0  0  0
   -1.1585   18.6561   17.9690 C   0  0  0  0  0  0  0  0  0  0  0  0
   -0.2203   18.8617   18.9785 C   0  0  0  0  0  0  0  0  0  0  0  0
    0.4959   17.7818   19.4996 C   0  0  0  0  0  0  0  0  0  0  0  0
    5.1447   19.5840   22.9321 O   0  0  0  0  0  0  0  0  0  0  0  0
    5.4550   20.4426   21.8963 C   0  0  0  0  0  0  0  0  0  0  0  0
    4.4828   21.2071   21.3427 N   0  0  0  0  0  0  0  0  0  0  0  0
    4.8593   22.0416   20.3481 C   0  0  0  0  0  0  0  0  0  0  0  0
    6.1614   22.1449   19.8749 C   0  0  0  0  0  0  0  0  0  0  0  0
    7.1429   21.3522   20.4636 C   0  0  0  0  0  0  0  0  0  0  0  0
    6.7850   20.4936   21.4945 C   0  0  0  0  0  0  0  0  0  0  0  0
    7.7249   19.7405   22.0822 F   0  0  0  0  0  0  0  0  0  0  0  0
  1  2  1  0  0  0
  2 11  1  0  0  0
 11 12  1  0  0  0
 12 13  2  0  0  0
 13 14  1  0  0  0
 14 15  2  0  0  0
 15 16  1  0  0  0
 16 17  2  0  0  0
  2  3  1  0  0  0
  3  4  2  0  0  0
  3  5  1  0  0  0
  5  6  1  0  0  0
  6  7  1  0  0  0
  7  8  1  0  0  0
  8 18  1  0  0  0
 18 19  1  0  0  0
 19 20  1  0  0  0
 20 21  2  0  0  0
 21 22  1  0  0  0
 22 23  2  0  0  0
 23 24  1  0  0  0
 24 25  1  0  0  0
  8  9  1  0  0  0
  9 10  1  0  0  0
 17 12  1  0  0  0
 10  5  1  0  0  0
 24 19  2  0  0  0
M  END
> <minimizedAffinity>
-7.73986

$$$$
OCNT-2309532


 25 28  0  0  0  0  0  0  0  0999 V2000
    3.0407   17.1041   21.4335 C   0  0  0  0  0  0  0  0  0  0  0  0
    2.2310   17.2461   20.3682 N   0  0  0  0  0  0  0  0  0  0  0  0
    1.5782   16.0651   20.2376 N   0  0  0  0  0  0  0  0  0  0  0  0
    1.9787   15.1600   21.1887 C   0  0  0  0  0  0  0  0  0  0  0  0
    2.9177   15.7922   21.9652 C   0  0  0  0  0  0  0  0  0  0  0  0
    4.5185   17.9340   23.0333 O   0  0  0  0  0  0  0  0  0  0  0  0
    3.9908   18.1358   21.9369 C   0  0  0  0  0  0  0  0  0  0  0  0
    4.2428   19.2896   21.1531 N   0  0  0  0  0  0  0  0  0  0  0  0
    3.2472   19.7582   20.1801 C   0  0  0  0  0  0  0  0  0  0  0  0
    3.2120   21.2667   20.0263 C   0  0  0  0  0  0  0  0  0  0  0  0
    4.5737   21.7489   19.5809 C   0  0  0  0  0  0  0  0  0  0  0  0
    5.6406   21.2339   20.5044 C   0  0  0  0  0  0  0  0  0  0  0  0
    6.8483   21.9538   20.5632 C   0  0  0  0  0  0  0  0  0  0  0  0
    7.8870   21.5322   21.3794 C   0  0  0  0  0  0  0  0  0  0  0  0
    7.7335   20.3757   22.1303 C   0  0  0  0  0  0  0  0  0  0  0  0
    6.5444   19.6420   22.0603 C   0  0  0  0  0  0  0  0  0  0  0  0
    5.4687   20.0514   21.2579 C   0  0  0  0  0  0  0  0  0  0  0  0
    0.6059   15.8893   19.2154 C   0  0  0  0  0  0  0  0  0  0  0  0
    0.1293   14.6003   18.9315 C   0  0  0  0  0  0  0  0  0  0  0  0
   -0.8050   14.4160   17.9170 C   0  0  0  0  0  0  0  0  0  0  0  0
   -1.2386   13.1807   17.6411 F   0  0  0  0  0  0  0  0  0  0  0  0
   -1.2817   15.4862   17.1758 C   0  0  0  0  0  0  0  0  0  0  0  0
   -0.8142   16.7573   17.4662 C   0  0  0  0  0  0  0  0  0  0  0  0
   -1.2646   17.8022   16.7593 F   0  0  0  0  0  0  0  0  0  0  0  0
    0.1228   16.9754   18.4756 C   0  0  0  0  0  0  0  0  0  0  0  0
  6  7  2  0  0  0
  7  1  1  0  0  0
  1  2  2  0  0  0
  2  3  1  0  0  0
  3 18  1  0  0  0
 18 19  2  0  0  0
 19 20  1  0  0  0
 20 21  1  0  0  0
 20 22  2  0  0  0
 22 23  1  0  0  0
 23 24  1  0  0  0
 23 25  2  0  0  0
  3  4  1  0  0  0
  4  5  2  0  0  0
  7  8  1  0  0  0
  8  9  1  0  0  0
  9 10  1  0  0  0
 10 11  1  0  0  0
 11 12  1  0  0  0
 12 13  2  0  0  0
 13 14  1  0  0  0
 14 15  2  0  0  0
 15 16  1  0  0  0
 16 17  2  0  0  0
  5  1  1  0  0  0
 17  8  1  0  0  0
 25 18  1  0  0  0
 17 12  1  0  0  0
M  END
> <minimizedAffinity>
-9.41108

$$$$
OCNT-2309536


 25 27  0  0  0  0  0  0  0  0999 V2000
    0.6159   18.1280   19.1393 C   0  0  0  0  0  0  0  0  0  0  0  0
    0.1411   19.0135   19.8462 O   0  0  0  0  0  0  0  0  0  0  0  0
    1.9710   17.8334   19.0760 N   0  0  0  0  0  0  0  0  0  0  0  0
    2.2581   17.0947   18.4464 H   0  0  0  0  0  0  0  0  0  0  0  0
    3.0182   18.4414   19.8061 C   0  0  0  0  0  0  0  0  0  0  0  0
    3.6346   17.7107   20.8155 C   0  0  0  0  0  0  0  0  0  0  0  0
    4.6482   18.1626   21.5910 N   0  0  0  0  0  0  0  0  0  0  0  0
    5.1039   19.4160   21.3827 C   0  0  0  0  0  0  0  0  0  0  0  0
    4.5436   20.2420   20.3820 C   0  0  0  0  0  0  0  0  0  0  0  0
    3.4934   19.7314   19.5985 C   0  0  0  0  0  0  0  0  0  0  0  0
    5.0296   21.5477   20.1775 C   0  0  0  0  0  0  0  0  0  0  0  0
    6.0700   22.0436   20.9581 C   0  0  0  0  0  0  0  0  0  0  0  0
    6.6203   21.2336   21.9394 C   0  0  0  0  0  0  0  0  0  0  0  0
    7.6224   21.7095   22.6916 F   0  0  0  0  0  0  0  0  0  0  0  0
    6.1444   19.9424   22.1469 C   0  0  0  0  0  0  0  0  0  0  0  0
    6.7110   19.1958   23.1105 F   0  0  0  0  0  0  0  0  0  0  0  0
   -0.2785   17.2800   18.1902 C   0  0  0  0  0  0  0  0  0  0  0  0
   -1.7468   17.7981   18.1949 C   0  0  0  0  0  0  0  0  0  0  0  0
   -1.9523   18.9340   17.1959 C   0  0  0  0  0  0  0  0  0  0  0  0
   -1.7270   18.4701   15.7581 C   0  0  0  0  0  0  0  0  0  0  0  0
   -0.7684   17.2861   15.6525 C   0  0  0  0  0  0  0  0  0  0  0  0
    0.3028   17.3322   16.7394 C   0  0  0  0  0  0  0  0  0  0  0  0
   -0.2133   15.8257   18.7236 C   0  0  0  0  0  0  0  0  0  0  0  0
    0.6085   14.4659   20.4711 C   0  0  0  0  0  0  0  0  0  0  0  0
    0.3148   15.7916   20.0494 O   0  0  0  0  0  0  0  0  0  0  0  0
 24 25  1  0  0  0
 25 23  1  0  0  0
 23 17  1  0  0  0
 17  1  1  0  0  0
  1  2  2  0  0  0
  1  3  1  0  0  0
  3  5  1  0  0  0
  5  6  1  0  0  0
  6  7  2  0  0  0
  7  8  1  0  0  0
  8  9  1  0  0  0
  9 10  1  0  0  0
  9 11  2  0  0  0
 11 12  1  0  0  0
 12 13  2  0  0  0
 13 14  1  0  0  0
 13 15  1  0  0  0
 15 16  1  0  0  0
 17 18  1  0  0  0
 18 19  1  0  0  0
 19 20  1  0  0  0
 20 21  1  0  0  0
 21 22  1  0  0  0
 22 17  1  0  0  0
 10  5  2  0  0  0
 15  8  2  0  0  0
  3  4  1  0  0  0
M  END
> <minimizedAffinity>
-7.71686

$$$$
OCNT-2309544


 28 30  0  0  0  0  0  0  0  0999 V2000
    0.4472   17.0902   19.2888 N   0  0  0  0  0  0  0  0  0  0  0  0
   -0.0511   15.8720   18.8753 C   0  0  0  0  0  0  0  0  0  0  0  0
   -0.4430   15.6493   17.7325 O   0  0  0  0  0  0  0  0  0  0  0  0
    0.9576   17.1109   20.1685 H   0  0  0  0  0  0  0  0  0  0  0  0
   -0.6902   18.9051   18.1033 C   0  0  0  0  0  0  0  0  0  0  0  0
    0.6413   18.1940   18.3600 C   0  0  0  0  0  0  0  0  0  0  0  0
    1.7629   19.0785   18.8638 C   0  0  0  0  0  0  0  0  0  0  0  0
    3.0613   18.5620   18.9552 C   0  0  0  0  0  0  0  0  0  0  0  0
    4.1036   19.3545   19.4362 C   0  0  0  0  0  0  0  0  0  0  0  0
    3.8362   20.6664   19.8241 C   0  0  0  0  0  0  0  0  0  0  0  0
    2.5771   21.1838   19.7581 N   0  0  0  0  0  0  0  0  0  0  0  0
    1.5851   20.3900   19.2875 C   0  0  0  0  0  0  0  0  0  0  0  0
    4.9752   21.5271   20.3559 C   0  0  0  0  0  0  0  0  0  0  0  0
    5.1667   22.6591   19.6137 F   0  0  0  0  0  0  0  0  0  0  0  0
    4.8045   21.9549   21.6400 F   0  0  0  0  0  0  0  0  0  0  0  0
    6.1752   20.8750   20.3364 F   0  0  0  0  0  0  0  0  0  0  0  0
   -0.0484   14.8061   19.9518 C   0  0  0  0  0  0  0  0  0  0  0  0
    1.1772   14.9338   20.7758 C   0  0  0  0  0  0  0  0  0  0  0  0
    1.9076   16.0584   20.7767 N   0  0  0  0  0  0  0  0  0  0  0  0
    2.9346   15.7425   21.6192 N   0  0  0  0  0  0  0  0  0  0  0  0
    2.8976   14.4853   22.1421 N   0  0  0  0  0  0  0  0  0  0  0  0
    1.7864   13.9808   21.6051 C   0  0  0  0  0  0  0  0  0  0  0  0
    3.9845   16.6535   21.9048 C   0  0  0  0  0  0  0  0  0  0  0  0
    3.7451   17.7680   22.7206 C   0  0  0  0  0  0  0  0  0  0  0  0
    4.7836   18.6557   23.0108 C   0  0  0  0  0  0  0  0  0  0  0  0
    6.0580   18.4388   22.4846 C   0  0  0  0  0  0  0  0  0  0  0  0
    6.2988   17.3341   21.6675 C   0  0  0  0  0  0  0  0  0  0  0  0
    5.2662   16.4383   21.3767 C   0  0  0  0  0  0  0  0  0  0  0  0
  5  6  1  0  0  0
  6  1  1  0  0  0
  1  2  1  0  0  0
  2  3  2  0  0  0
  2 17  1  0  0  0
 17 18  1  0  0  0
 18 19  2  0  0  0
 19 20  1  0  0  0
 20 23  1  0  0  0
 23 24  2  0  0  0
 24 25  1  0  0  0
 25 26  2  0  0  0
 26 27  1  0  0  0
 27 28  2  0  0  0
 20 21  1  0  0  0
 21 22  2  0  0  0
  6  7  1  0  0  0
  7  8  2  0  0  0
  8  9  1  0  0  0
  9 10  2  0  0  0
 10 13  1  0  0  0
 13 14  1  0  0  0
 13 15  1  0  0  0
 13 16  1  0  0  0
 10 11  1  0  0  0
 11 12  2  0  0  0
 22 18  1  0  0  0
 12  7  1  0  0  0
 28 23  1  0  0  0
  1  4  1  0  0  0
M  END
> <minimizedAffinity>
-9.62039

$$$$
OCNT-2309576


 24 27  0  0  0  0  0  0  0  0999 V2000
    3.8010   17.4516   21.9601 O   0  0  0  0  0  0  0  0  0  0  0  0
    3.1017   16.9879   21.0508 C   0  0  0  0  0  0  0  0  0  0  0  0
    2.7378   15.6458   21.0430 N   0  0  0  0  0  0  0  0  0  0  0  0
    1.6638   15.0475   20.2486 C   0  0  0  0  0  0  0  0  0  0  0  0
    0.4527   14.7487   21.1314 C   0  0  0  0  0  0  0  0  0  0  0  0
    0.8559   13.8939   22.3468 C   0  0  0  0  0  0  0  0  0  0  0  0
    2.0430   14.5180   23.1031 C   0  0  0  0  0  0  0  0  0  0  0  0
    3.1956   14.7968   22.1422 C   0  0  0  0  0  0  0  0  0  0  0  0
    2.6710   17.9312   19.9151 C   0  0  0  0  0  0  0  0  0  0  0  0
    1.1466   17.8750   19.7355 C   0  0  0  0  0  0  0  0  0  0  0  0
    0.6598   18.8658   18.6970 C   0  0  0  0  0  0  0  0  0  0  0  0
    0.8931   20.5547   19.3089 S   0  0  0  0  0  0  0  0  0  0  0  0
    2.6274   20.4952   19.7248 C   0  0  0  0  0  0  0  0  0  0  0  0
    3.2978   21.7249   19.8071 C   0  0  0  0  0  0  0  0  0  0  0  0
    4.6618   21.7806   20.0915 C   0  0  0  0  0  0  0  0  0  0  0  0
    5.3731   20.6043   20.2892 C   0  0  0  0  0  0  0  0  0  0  0  0
    4.7144   19.3769   20.2229 C   0  0  0  0  0  0  0  0  0  0  0  0
    3.3278   19.3025   19.9713 C   0  0  0  0  0  0  0  0  0  0  0  0
   -0.3204   13.6213   23.2602 C   0  0  0  0  0  0  0  0  0  0  0  0
   -0.8195   14.5836   24.1210 C   0  0  0  0  0  0  0  0  0  0  0  0
   -1.8937   14.2139   24.8996 C   0  0  0  0  0  0  0  0  0  0  0  0
   -2.4584   12.9952   24.8575 N   0  0  0  0  0  0  0  0  0  0  0  0
   -1.9041   12.1345   23.9928 C   0  0  0  0  0  0  0  0  0  0  0  0
   -0.8592   12.3847   23.1871 N   0  0  0  0  0  0  0  0  0  0  0  0
  1  2  2  0  0  0
  2  9  1  0  0  0
  9 10  1  0  0  0
 10 11  1  0  0  0
 11 12  1  0  0  0
 12 13  1  0  0  0
 13 14  2  0  0  0
 14 15  1  0  0  0
 15 16  2  0  0  0
 16 17  1  0  0  0
 17 18  2  0  0  0
  2  3  1  0  0  0
  3  4  1  0  0  0
  4  5  1  0  0  0
  5  6  1  0  0  0
  6 19  1  0  0  0
 19 20  1  0  0  0
 20 21  2  0  0  0
 21 22  1  0  0  0
 22 23  2  0  0  0
 23 24  1  0  0  0
  6  7  1  0  0  0
  7  8  1  0  0  0
 18  9  1  0  0  0
  8  3  1  0  0  0
 18 13  1  0  0  0
 24 19  2  0  0  0
M  END
> <minimizedAffinity>
-6.08983

$$$$
OCNT-2309586


 24 26  0  0  0  0  0  0  0  0999 V2000
    0.8908   16.7942   19.7829 C   0  0  0  0  0  0  0  0  0  0  0  0
   -0.1384   16.8587   19.1111 O   0  0  0  0  0  0  0  0  0  0  0  0
    1.8720   17.7926   19.7138 N   0  0  0  0  0  0  0  0  0  0  0  0
    3.2577   17.6117   20.1593 C   0  0  0  0  0  0  0  0  0  0  0  0
    4.2405   18.3500   19.2550 C   0  0  0  0  0  0  0  0  0  0  0  0
    3.9378   19.8578   19.1848 C   0  0  0  0  0  0  0  0  0  0  0  0
    2.4382   20.1638   19.3489 C   0  0  0  0  0  0  0  0  0  0  0  0
    1.5723   18.9850   18.9282 C   0  0  0  0  0  0  0  0  0  0  0  0
    4.7328   20.6132   20.2214 C   0  0  0  0  0  0  0  0  0  0  0  0
    4.6477   21.9131   20.4168 N   0  0  0  0  0  0  0  0  0  0  0  0
    5.5089   22.2888   21.4284 C   0  0  0  0  0  0  0  0  0  0  0  0
    6.2461   21.2710   21.9958 C   0  0  0  0  0  0  0  0  0  0  0  0
    7.2497   21.3267   23.0886 C   0  0  0  0  0  0  0  0  0  0  0  0
    5.8493   19.7874   21.2369 S   0  0  0  0  0  0  0  0  0  0  0  0
    0.4907   14.0242   22.0533 C   0  0  0  0  0  0  0  0  0  0  0  0
    0.0478   14.9543   21.2427 N   0  0  0  0  0  0  0  0  0  0  0  0
    1.1173   15.6677   20.6988 C   0  0  0  0  0  0  0  0  0  0  0  0
    2.3576   15.2535   21.1553 C   0  0  0  0  0  0  0  0  0  0  0  0
    2.1793   13.9338   22.2309 S   0  0  0  0  0  0  0  0  0  0  0  0
   -1.9960   12.3374   24.2573 C   0  0  0  0  0  0  0  0  0  0  0  0
   -1.1304   13.4959   23.8257 C   0  0  0  0  0  0  0  0  0  0  0  0
   -1.1290   14.5385   24.4698 O   0  0  0  0  0  0  0  0  0  0  0  0
   -0.3839   13.1991   22.7103 N   0  0  0  0  0  0  0  0  0  0  0  0
   -0.4431   12.2817   22.2913 H   0  0  0  0  0  0  0  0  0  0  0  0
 20 21  1  0  0  0
 21 22  2  0  0  0
 21 23  1  0  0  0
 23 15  1  0  0  0
 15 16  2  0  0  0
 16 17  1  0  0  0
 17  1  1  0  0  0
  1  2  2  0  0  0
  1  3  1  0  0  0
  3  4  1  0  0  0
  4  5  1  0  0  0
  5  6  1  0  0  0
  6  9  1  0  0  0
  9 10  2  0  0  0
 10 11  1  0  0  0
 11 12  2  0  0  0
 12 13  1  0  0  0
 12 14  1  0  0  0
  6  7  1  0  0  0
  7  8  1  0  0  0
 17 18  2  0  0  0
 18 19  1  0  0  0
 19 15  1  0  0  0
  8  3  1  0  0  0
 14  9  1  0  0  0
 23 24  1  0  0  0
M  END
> <minimizedAffinity>
-6.30443

$$$$
OCNT-2309593


 28 31  0  0  0  0  0  0  0  0999 V2000
    3.2631   17.3752   20.9666 C   0  0  0  0  0  0  0  0  0  0  0  0
    2.0790   17.0629   20.3233 C   0  0  0  0  0  0  0  0  0  0  0  0
    1.7590   18.1195   19.5041 N   0  0  0  0  0  0  0  0  0  0  0  0
    2.6664   19.1165   19.6137 N   0  0  0  0  0  0  0  0  0  0  0  0
    3.5728   18.6872   20.5023 C   0  0  0  0  0  0  0  0  0  0  0  0
    0.6415   18.2444   18.6295 C   0  0  0  0  0  0  0  0  0  0  0  0
    0.6334   19.1787   17.5842 C   0  0  0  0  0  0  0  0  0  0  0  0
   -0.4785   19.2774   16.7418 C   0  0  0  0  0  0  0  0  0  0  0  0
   -1.5832   18.4496   16.9351 C   0  0  0  0  0  0  0  0  0  0  0  0
   -1.5823   17.5193   17.9718 C   0  0  0  0  0  0  0  0  0  0  0  0
   -0.4758   17.4152   18.8173 C   0  0  0  0  0  0  0  0  0  0  0  0
    4.6970   19.5439   20.8696 C   0  0  0  0  0  0  0  0  0  0  0  0
    5.6667   19.1051   21.7807 C   0  0  0  0  0  0  0  0  0  0  0  0
    6.7378   19.9337   22.1238 C   0  0  0  0  0  0  0  0  0  0  0  0
    6.8424   21.2071   21.5652 C   0  0  0  0  0  0  0  0  0  0  0  0
    5.8744   21.6571   20.6683 C   0  0  0  0  0  0  0  0  0  0  0  0
    4.8032   20.8300   20.3245 C   0  0  0  0  0  0  0  0  0  0  0  0
    4.0214   16.5260   21.9314 C   0  0  0  0  0  0  0  0  0  0  0  0
    3.5755   15.1423   21.7803 N   0  0  0  0  0  0  0  0  0  0  0  0
    3.3089   14.9699   20.8133 H   0  0  0  0  0  0  0  0  0  0  0  0
    2.4582   14.8068   22.6748 C   0  0  0  0  0  0  0  0  0  0  0  0
    1.1560   14.4306   21.9575 C   0  0  0  0  0  0  0  0  0  0  0  0
   -2.3173   11.8602   24.1421 C   0  0  0  0  0  0  0  0  0  0  0  0
   -1.3853   12.9205   23.8697 N   0  0  0  0  0  0  0  0  0  0  0  0
   -1.1802   14.0584   24.5816 C   0  0  0  0  0  0  0  0  0  0  0  0
   -0.2409   14.7722   24.0049 N   0  0  0  0  0  0  0  0  0  0  0  0
    0.1059   14.0092   22.9190 C   0  0  0  0  0  0  0  0  0  0  0  0
   -0.5772   12.8635   22.7966 N   0  0  0  0  0  0  0  0  0  0  0  0
 23 24  1  0  0  0
 24 25  1  0  0  0
 25 26  2  0  0  0
 26 27  1  0  0  0
 27 22  1  0  0  0
 22 21  1  0  0  0
 21 19  1  0  0  0
 19 18  1  0  0  0
 18  1  1  0  0  0
  1  2  2  0  0  0
  2  3  1  0  0  0
  3  6  1  0  0  0
  6  7  2  0  0  0
  7  8  1  0  0  0
  8  9  2  0  0  0
  9 10  1  0  0  0
 10 11  2  0  0  0
  3  4  1  0  0  0
  4  5  2  0  0  0
  5 12  1  0  0  0
 12 13  2  0  0  0
 13 14  1  0  0  0
 14 15  2  0  0  0
 15 16  1  0  0  0
 16 17  2  0  0  0
 27 28  2  0  0  0
 28 24  1  0  0  0
  5  1  1  0  0  0
 17 12  1  0  0  0
 11  6  1  0  0  0
 19 20  1  0  0  0
M  END
> <minimizedAffinity>
-9.65301

$$$$
OCNT-2309596


 23 25  0  0  0  0  0  0  0  0999 V2000
    3.1215   16.5153   21.7468 O   0  0  0  0  0  0  0  0  0  0  0  0
    3.9981   17.3543   21.5641 C   0  0  0  0  0  0  0  0  0  0  0  0
    5.0501   17.4209   22.4290 N   0  0  0  0  0  0  0  0  0  0  0  0
    6.2162   18.2126   22.1502 C   0  0  0  0  0  0  0  0  0  0  0  0
    5.7993   19.5796   21.6386 C   0  0  0  0  0  0  0  0  0  0  0  0
    7.0119   20.4592   21.3079 C   0  0  0  0  0  0  0  0  0  0  0  0
    6.5541   21.9064   21.5039 C   0  0  0  0  0  0  0  0  0  0  0  0
    5.1983   21.8470   22.1998 C   0  0  0  0  0  0  0  0  0  0  0  0
    5.0532   20.4124   22.6914 C   0  0  0  0  0  0  0  0  0  0  0  0
    4.9020   19.3363   20.4224 C   0  0  0  0  0  0  0  0  0  0  0  0
    4.9230   20.0897   19.4467 O   0  0  0  0  0  0  0  0  0  0  0  0
    4.0105   18.2681   20.5240 N   0  0  0  0  0  0  0  0  0  0  0  0
    5.0849   16.6663   23.1051 H   0  0  0  0  0  0  0  0  0  0  0  0
    2.9900   18.1343   19.4876 C   0  0  0  0  0  0  0  0  0  0  0  0
    1.5960   17.9424   20.0944 C   0  0  0  0  0  0  0  0  0  0  0  0
    0.8024   16.8959   19.3558 C   0  0  0  0  0  0  0  0  0  0  0  0
    0.6229   15.6174   19.9042 C   0  0  0  0  0  0  0  0  0  0  0  0
   -0.1293   14.6614   19.2190 C   0  0  0  0  0  0  0  0  0  0  0  0
   -0.7038   14.9844   17.9933 C   0  0  0  0  0  0  0  0  0  0  0  0
   -1.4252   14.0627   17.3422 F   0  0  0  0  0  0  0  0  0  0  0  0
   -0.5454   16.2454   17.4377 C   0  0  0  0  0  0  0  0  0  0  0  0
    0.2044   17.1915   18.1251 C   0  0  0  0  0  0  0  0  0  0  0  0
    0.3480   18.4130   17.5930 F   0  0  0  0  0  0  0  0  0  0  0  0
  1  2  2  0  0  0
  2  3  1  0  0  0
  3  4  1  0  0  0
  4  5  1  0  0  0
  5  6  1  0  0  0
  6  7  1  0  0  0
  7  8  1  0  0  0
  8  9  1  0  0  0
  5 10  1  0  0  0
 10 11  2  0  0  0
 10 12  1  0  0  0
 12 14  1  0  0  0
 14 15  1  0  0  0
 15 16  1  0  0  0
 16 17  1  0  0  0
 17 18  2  0  0  0
 18 19  1  0  0  0
 19 20  1  0  0  0
 19 21  2  0  0  0
 21 22  1  0  0  0
 22 23  1  0  0  0
 12  2  1  0  0  0
 22 16  2  0  0  0
  9  5  1  0  0  0
  3 13  1  0  0  0
M  END
> <minimizedAffinity>
-10.36226

$$$$
OCNT-2309597


 22 23  0  0  0  0  0  0  0  0999 V2000
    3.1468   16.2960   21.7810 C   0  0  0  0  0  0  0  0  0  0  0  0
    3.7279   14.8867   21.9130 C   0  0  0  0  0  0  0  0  0  0  0  0
    2.0994   16.4373   20.6972 C   0  0  0  0  0  0  0  0  0  0  0  0
    1.1849   15.4031   20.4664 C   0  0  0  0  0  0  0  0  0  0  0  0
    0.2034   15.5374   19.4862 C   0  0  0  0  0  0  0  0  0  0  0  0
    0.1376   16.7183   18.7477 C   0  0  0  0  0  0  0  0  0  0  0  0
    1.0135   17.7411   18.9603 N   0  0  0  0  0  0  0  0  0  0  0  0
    1.9542   17.5815   19.9212 C   0  0  0  0  0  0  0  0  0  0  0  0
   -0.9273   16.8495   17.6662 C   0  0  0  0  0  0  0  0  0  0  0  0
   -1.2806   15.6423   17.1312 F   0  0  0  0  0  0  0  0  0  0  0  0
   -2.0925   17.4180   18.0875 F   0  0  0  0  0  0  0  0  0  0  0  0
   -0.5052   17.6032   16.6085 F   0  0  0  0  0  0  0  0  0  0  0  0
    4.6300   18.1369   22.5375 C   0  0  0  0  0  0  0  0  0  0  0  0
    4.2133   18.0833   23.6918 O   0  0  0  0  0  0  0  0  0  0  0  0
    4.2171   17.2525   21.5610 N   0  0  0  0  0  0  0  0  0  0  0  0
    4.5004   17.4529   20.6090 H   0  0  0  0  0  0  0  0  0  0  0  0
    7.2148   21.9261   20.3978 C   0  0  0  0  0  0  0  0  0  0  0  0
    6.7482   20.7626   21.1841 C   0  0  0  0  0  0  0  0  0  0  0  0
    7.5815   20.1408   22.0272 N   0  0  0  0  0  0  0  0  0  0  0  0
    6.8466   19.1152   22.5929 O   0  0  0  0  0  0  0  0  0  0  0  0
    5.5793   19.1253   22.0893 C   0  0  0  0  0  0  0  0  0  0  0  0
    5.4721   20.1591   21.1877 C   0  0  0  0  0  0  0  0  0  0  0  0
 17 18  1  0  0  0
 18 19  2  0  0  0
 19 20  1  0  0  0
 20 21  1  0  0  0
 21 13  1  0  0  0
 13 14  2  0  0  0
 13 15  1  0  0  0
 15  1  1  0  0  0
  1  2  1  0  0  0
  1  3  1  0  0  0
  3  4  2  0  0  0
  4  5  1  0  0  0
  5  6  2  0  0  0
  6  9  1  0  0  0
  9 10  1  0  0  0
  9 11  1  0  0  0
  9 12  1  0  0  0
  6  7  1  0  0  0
  7  8  2  0  0  0
 21 22  2  0  0  0
 22 18  1  0  0  0
  8  3  1  0  0  0
 15 16  1  0  0  0
M  END
> <minimizedAffinity>
-9.25839

$$$$
OCNT-2309598


 26 28  0  0  0  0  0  0  0  0999 V2000
    3.6140   17.5070   23.2586 O   0  0  0  0  0  0  0  0  0  0  0  0
    4.3614   17.0780   22.3899 C   0  0  0  0  0  0  0  0  0  0  0  0
    4.1923   15.8810   21.7441 N   0  0  0  0  0  0  0  0  0  0  0  0
    5.4704   17.7439   21.9301 N   0  0  0  0  0  0  0  0  0  0  0  0
    5.0482   15.4194   21.4704 H   0  0  0  0  0  0  0  0  0  0  0  0
    5.7886   17.4478   21.0172 H   0  0  0  0  0  0  0  0  0  0  0  0
    5.8289   19.0770   22.4357 C   0  0  0  0  0  0  0  0  0  0  0  0
    7.1863   19.6076   21.9266 C   0  0  0  0  0  0  0  0  0  0  0  0
    6.5199   21.0020   21.7871 C   0  0  0  0  0  0  0  0  0  0  0  0
    5.1682   20.2497   21.6788 C   0  0  0  0  0  0  0  0  0  0  0  0
    6.9446   21.8711   20.5781 C   0  0  0  0  0  0  0  0  0  0  0  0
    8.0769   22.1120   20.1783 O   0  0  0  0  0  0  0  0  0  0  0  0
    5.8967   22.4154   19.9153 O   0  0  0  0  0  0  0  0  0  0  0  0
    6.3179   22.9237   19.1904 H   0  0  0  0  0  0  0  0  0  0  0  0
    3.1533   14.9729   22.1807 C   0  0  0  0  0  0  0  0  0  0  0  0
    2.0062   15.0790   21.2287 C   0  0  0  0  0  0  0  0  0  0  0  0
    1.0347   14.1264   20.9999 C   0  0  0  0  0  0  0  0  0  0  0  0
   -0.0573   14.6771   19.8070 S   0  0  0  0  0  0  0  0  0  0  0  0
    0.8407   16.1425   19.6470 C   0  0  0  0  0  0  0  0  0  0  0  0
    1.8899   16.2233   20.4472 N   0  0  0  0  0  0  0  0  0  0  0  0
    0.4421   17.2097   18.7051 C   0  0  0  0  0  0  0  0  0  0  0  0
    1.0293   18.4812   18.8350 C   0  0  0  0  0  0  0  0  0  0  0  0
    0.6937   19.5288   17.9725 C   0  0  0  0  0  0  0  0  0  0  0  0
   -0.2363   19.3227   16.9585 C   0  0  0  0  0  0  0  0  0  0  0  0
   -0.8277   18.0715   16.8066 C   0  0  0  0  0  0  0  0  0  0  0  0
   -0.4909   17.0237   17.6713 C   0  0  0  0  0  0  0  0  0  0  0  0
  1  2  2  0  0  0
  2  3  1  0  0  0
  3 15  1  0  0  0
 15 16  1  0  0  0
 16 17  2  0  0  0
 17 18  1  0  0  0
 18 19  1  0  0  0
 19 21  1  0  0  0
 21 22  2  0  0  0
 22 23  1  0  0  0
 23 24  2  0  0  0
 24 25  1  0  0  0
 25 26  2  0  0  0
 19 20  2  0  0  0
  2  4  1  0  0  0
  4  7  1  0  0  0
  7  8  1  0  0  0
  8  9  1  0  0  0
  9 11  1  0  0  0
 11 12  2  0  0  0
 11 13  1  0  0  0
  9 10  1  0  0  0
 20 16  1  0  0  0
 10  7  1  0  0  0
 26 21  1  0  0  0
  3  5  1  0  0  0
  4  6  1  0  0  0
 13 14  1  0  0  0
M  END
> <minimizedAffinity>
-8.53761

$$$$
OCNT-2309599


 34 38  0  0  0  0  0  0  0  0999 V2000
   -2.3246   16.4025   17.0025 C   0  0  0  0  0  0  0  0  0  0  0  0
   -1.3363   17.4952   17.1810 C   0  0  0  0  0  0  0  0  0  0  0  0
   -1.4528   18.6267   16.4733 N   0  0  0  0  0  0  0  0  0  0  0  0
   -0.4124   19.3738   16.8832 N   0  0  0  0  0  0  0  0  0  0  0  0
    0.3767   18.7568   17.8207 C   0  0  0  0  0  0  0  0  0  0  0  0
   -0.2107   17.5288   18.0493 C   0  0  0  0  0  0  0  0  0  0  0  0
   -0.2710   20.3013   16.4882 H   0  0  0  0  0  0  0  0  0  0  0  0
    0.2923   16.5343   18.9728 C   0  0  0  0  0  0  0  0  0  0  0  0
   -0.3066   15.2687   19.0422 C   0  0  0  0  0  0  0  0  0  0  0  0
    0.1787   14.3092   19.9336 C   0  0  0  0  0  0  0  0  0  0  0  0
    1.2656   14.6103   20.7515 C   0  0  0  0  0  0  0  0  0  0  0  0
    1.7020   13.6145   21.5875 O   0  0  0  0  0  0  0  0  0  0  0  0
    3.0083   13.9021   22.1015 C   0  0  0  0  0  0  0  0  0  0  0  0
    3.0866   15.3402   22.5867 C   0  0  0  0  0  0  0  0  0  0  0  0
    2.9031   16.2531   21.4982 O   0  0  0  0  0  0  0  0  0  0  0  0
    1.8522   15.8789   20.6998 C   0  0  0  0  0  0  0  0  0  0  0  0
    1.3785   16.8346   19.8017 C   0  0  0  0  0  0  0  0  0  0  0  0
    1.5217   19.3164   18.3640 N   0  0  0  0  0  0  0  0  0  0  0  0
    1.4800   20.4269   19.1996 C   0  0  0  0  0  0  0  0  0  0  0  0
    0.4238   20.9711   19.5255 O   0  0  0  0  0  0  0  0  0  0  0  0
    2.4030   18.8826   18.1279 H   0  0  0  0  0  0  0  0  0  0  0  0
    2.8047   20.8947   19.6684 C   0  0  0  0  0  0  0  0  0  0  0  0
    3.6364   20.0686   20.3237 N   0  0  0  0  0  0  0  0  0  0  0  0
    4.7527   20.7772   20.6104 N   0  0  0  0  0  0  0  0  0  0  0  0
    4.6278   22.0687   20.1428 C   0  0  0  0  0  0  0  0  0  0  0  0
    3.3986   22.1731   19.5380 C   0  0  0  0  0  0  0  0  0  0  0  0
    5.8453   20.1828   21.2967 C   0  0  0  0  0  0  0  0  0  0  0  0
    5.6840   18.9778   21.9933 C   0  0  0  0  0  0  0  0  0  0  0  0
    4.5081   18.3378   22.0581 F   0  0  0  0  0  0  0  0  0  0  0  0
    6.7522   18.3808   22.6698 C   0  0  0  0  0  0  0  0  0  0  0  0
    8.0085   18.9773   22.6639 C   0  0  0  0  0  0  0  0  0  0  0  0
    8.1877   20.1741   21.9787 C   0  0  0  0  0  0  0  0  0  0  0  0
    7.1165   20.7671   21.3031 C   0  0  0  0  0  0  0  0  0  0  0  0
    7.3802   21.9113   20.6580 F   0  0  0  0  0  0  0  0  0  0  0  0
  1  2  1  0  0  0
  2  3  2  0  0  0
  3  4  1  0  0  0
  4  5  1  0  0  0
  5 18  1  0  0  0
 18 19  1  0  0  0
 19 20  2  0  0  0
 19 22  1  0  0  0
 22 23  2  0  0  0
 23 24  1  0  0  0
 24 27  1  0  0  0
 27 28  2  0  0  0
 28 29  1  0  0  0
 28 30  1  0  0  0
 30 31  2  0  0  0
 31 32  1  0  0  0
 32 33  2  0  0  0
 33 34  1  0  0  0
 24 25  1  0  0  0
 25 26  2  0  0  0
  5  6  2  0  0  0
  6  8  1  0  0  0
  8  9  1  0  0  0
  9 10  2  0  0  0
 10 11  1  0  0  0
 11 12  1  0  0  0
 12 13  1  0  0  0
 13 14  1  0  0  0
 14 15  1  0  0  0
 15 16  1  0  0  0
 16 17  1  0  0  0
  6  2  1  0  0  0
 17  8  2  0  0  0
 26 22  1  0  0  0
 16 11  2  0  0  0
 33 27  1  0  0  0
  4  7  1  0  0  0
 18 21  1  0  0  0
M  END
> <minimizedAffinity>
-5.40926

$$$$
OCNT-2309600


 24 26  0  0  0  0  0  0  0  0999 V2000
   -0.7027   17.5042   18.1619 C   0  0  0  0  0  0  0  0  0  0  0  0
    0.4987   17.5250   18.9829 N   0  0  0  0  0  0  0  0  0  0  0  0
    1.3148   18.6542   18.9245 C   0  0  0  0  0  0  0  0  0  0  0  0
    1.0862   19.6072   18.1791 O   0  0  0  0  0  0  0  0  0  0  0  0
    2.5268   18.6777   19.8033 C   0  0  0  0  0  0  0  0  0  0  0  0
    2.8408   17.6076   20.5503 C   0  0  0  0  0  0  0  0  0  0  0  0
    1.9869   16.4271   20.5724 C   0  0  0  0  0  0  0  0  0  0  0  0
    2.3316   15.3317   21.3764 C   0  0  0  0  0  0  0  0  0  0  0  0
    1.5136   14.2048   21.4188 C   0  0  0  0  0  0  0  0  0  0  0  0
    0.3493   14.1686   20.6572 C   0  0  0  0  0  0  0  0  0  0  0  0
    0.0027   15.2574   19.8526 C   0  0  0  0  0  0  0  0  0  0  0  0
    0.8168   16.3990   19.7996 C   0  0  0  0  0  0  0  0  0  0  0  0
    3.3773   19.9186   19.7707 C   0  0  0  0  0  0  0  0  0  0  0  0
    4.7818   19.6042   20.0608 N   0  0  0  0  0  0  0  0  0  0  0  0
    5.3489   19.8851   19.2621 H   0  0  0  0  0  0  0  0  0  0  0  0
    5.3394   20.2246   21.2973 C   0  0  0  0  0  0  0  0  0  0  0  0
    4.9996   21.7150   21.2303 C   0  0  0  0  0  0  0  0  0  0  0  0
    6.0381   22.2495   20.2682 C   0  0  0  0  0  0  0  0  0  0  0  0
    7.2457   21.5424   20.5719 O   0  0  0  0  0  0  0  0  0  0  0  0
    6.8863   20.3105   21.2306 C   0  0  0  0  0  0  0  0  0  0  0  0
    4.8083   19.4909   22.5561 C   0  0  0  0  0  0  0  0  0  0  0  0
    5.6142   18.2890   23.0507 C   0  0  0  0  0  0  0  0  0  0  0  0
    5.6721   17.2949   22.0368 O   0  0  0  0  0  0  0  0  0  0  0  0
    6.1636   16.5400   22.4029 H   0  0  0  0  0  0  0  0  0  0  0  0
  1  2  1  0  0  0
  2  3  1  0  0  0
  3  4  2  0  0  0
  3  5  1  0  0  0
  5 13  1  0  0  0
 13 14  1  0  0  0
 14 16  1  0  0  0
 16 21  1  0  0  0
 21 22  1  0  0  0
 22 23  1  0  0  0
 16 17  1  0  0  0
 17 18  1  0  0  0
 18 19  1  0  0  0
 19 20  1  0  0  0
  5  6  2  0  0  0
  6  7  1  0  0  0
  7  8  2  0  0  0
  8  9  1  0  0  0
  9 10  2  0  0  0
 10 11  1  0  0  0
 11 12  2  0  0  0
 12  2  1  0  0  0
 20 16  1  0  0  0
 12  7  1  0  0  0
 14 15  1  0  0  0
 23 24  1  0  0  0
M  END
> <minimizedAffinity>
-10.01595

$$$$
OCNT-2309602


 28 30  0  0  0  0  0  0  0  0999 V2000
    0.2507   14.2271   22.6206 O   0  0  0  0  0  0  0  0  0  0  0  0
    1.4135   14.4350   21.7761 S   0  0  0  0  0  0  0  0  0  0  0  0
    2.2311   13.3069   21.3860 O   0  0  0  0  0  0  0  0  0  0  0  0
    0.8415   15.2824   20.3223 C   0  0  0  0  0  0  0  0  0  0  0  0
    1.2786   16.5845   20.0635 C   0  0  0  0  0  0  0  0  0  0  0  0
    0.8031   17.2691   18.9388 C   0  0  0  0  0  0  0  0  0  0  0  0
   -0.1137   16.6590   18.0782 C   0  0  0  0  0  0  0  0  0  0  0  0
   -0.5566   15.3613   18.3600 C   0  0  0  0  0  0  0  0  0  0  0  0
   -0.0912   14.6741   19.4826 C   0  0  0  0  0  0  0  0  0  0  0  0
   -0.6543   17.2045   16.9491 O   0  0  0  0  0  0  0  0  0  0  0  0
   -1.0158   18.5735   16.9835 C   0  0  0  0  0  0  0  0  0  0  0  0
   -1.2158   18.9947   18.2510 F   0  0  0  0  0  0  0  0  0  0  0  0
   -0.0069   19.3017   16.4551 F   0  0  0  0  0  0  0  0  0  0  0  0
   -2.1265   18.8043   16.2516 F   0  0  0  0  0  0  0  0  0  0  0  0
    2.3328   15.5693   22.5805 N   0  0  0  0  0  0  0  0  0  0  0  0
    2.0667   15.7017   23.5501 H   0  0  0  0  0  0  0  0  0  0  0  0
    3.3972   16.2617   22.0442 C   0  0  0  0  0  0  0  0  0  0  0  0
    3.4859   17.5829   22.0231 N   0  0  0  0  0  0  0  0  0  0  0  0
    4.6776   17.8677   21.4299 N   0  0  0  0  0  0  0  0  0  0  0  0
    5.3362   16.7013   21.0915 C   0  0  0  0  0  0  0  0  0  0  0  0
    4.5333   15.6560   21.4840 C   0  0  0  0  0  0  0  0  0  0  0  0
    5.0832   19.2300   21.2531 C   0  0  0  0  0  0  0  0  0  0  0  0
    6.1315   19.6818   22.0089 N   0  0  0  0  0  0  0  0  0  0  0  0
    6.5212   20.9651   21.8527 C   0  0  0  0  0  0  0  0  0  0  0  0
    5.9219   21.8436   20.9686 C   0  0  0  0  0  0  0  0  0  0  0  0
    4.8603   21.3775   20.2016 C   0  0  0  0  0  0  0  0  0  0  0  0
    4.4343   20.0588   20.3432 C   0  0  0  0  0  0  0  0  0  0  0  0
    3.4060   19.6557   19.5864 F   0  0  0  0  0  0  0  0  0  0  0  0
  1  2  2  0  0  0
  2  3  2  0  0  0
  2 15  1  0  0  0
 15 17  1  0  0  0
 17 18  2  0  0  0
 18 19  1  0  0  0
 19 22  1  0  0  0
 22 23  1  0  0  0
 23 24  2  0  0  0
 24 25  1  0  0  0
 25 26  2  0  0  0
 26 27  1  0  0  0
 27 28  1  0  0  0
 19 20  1  0  0  0
 20 21  2  0  0  0
  2  4  1  0  0  0
  4  5  1  0  0  0
  5  6  2  0  0  0
  6  7  1  0  0  0
  7 10  1  0  0  0
 10 11  1  0  0  0
 11 12  1  0  0  0
 11 13  1  0  0  0
 11 14  1  0  0  0
  7  8  2  0  0  0
  8  9  1  0  0  0
 21 17  1  0  0  0
  9  4  2  0  0  0
 27 22  2  0  0  0
 15 16  1  0  0  0
M  END
> <minimizedAffinity>
-10.51138

$$$$
OCNT-2309612


 23 25  0  0  0  0  0  0  0  0999 V2000
    3.4123   16.7927   21.3742 C   0  0  0  0  0  0  0  0  0  0  0  0
    3.6711   15.6510   21.9933 N   0  0  0  0  0  0  0  0  0  0  0  0
    2.6691   14.7508   21.7026 N   0  0  0  0  0  0  0  0  0  0  0  0
    1.8244   15.3608   20.9131 C   0  0  0  0  0  0  0  0  0  0  0  0
    2.2406   16.6315   20.6765 N   0  0  0  0  0  0  0  0  0  0  0  0
    1.7699   17.3094   20.1008 H   0  0  0  0  0  0  0  0  0  0  0  0
    5.8310   20.3369   21.5505 C   0  0  0  0  0  0  0  0  0  0  0  0
    4.7794   20.2525   20.6316 C   0  0  0  0  0  0  0  0  0  0  0  0
    3.9830   19.1030   20.5614 C   0  0  0  0  0  0  0  0  0  0  0  0
    4.2189   18.0140   21.4125 C   0  0  0  0  0  0  0  0  0  0  0  0
    5.2704   18.1103   22.3355 C   0  0  0  0  0  0  0  0  0  0  0  0
    6.0665   19.2573   22.4069 C   0  0  0  0  0  0  0  0  0  0  0  0
    7.6148   21.7131   20.4482 C   0  0  0  0  0  0  0  0  0  0  0  0
    6.6763   21.5818   21.6380 C   0  0  0  0  0  0  0  0  0  0  0  0
    0.3808   14.7539   20.2035 S   0  0  0  0  0  0  0  0  0  0  0  0
   -0.4532   16.3109   19.7819 C   0  0  0  0  0  0  0  0  0  0  0  0
   -0.4220   16.6006   18.2693 C   0  0  0  0  0  0  0  0  0  0  0  0
   -0.7889   15.3685   17.4323 C   0  0  0  0  0  0  0  0  0  0  0  0
   -1.3432   17.8082   17.9010 C   0  0  0  0  0  0  0  0  0  0  0  0
    0.0382   18.9092   17.8818 S   0  0  0  0  0  0  0  0  0  0  0  0
    0.2703   19.5043   19.1799 O   0  0  0  0  0  0  0  0  0  0  0  0
    0.1008   19.6609   16.6472 O   0  0  0  0  0  0  0  0  0  0  0  0
    0.8424   17.3449   17.7278 C   0  0  0  0  0  0  0  0  0  0  0  0
 13 14  1  0  0  0
 14  7  1  0  0  0
  7  8  1  0  0  0
  8  9  2  0  0  0
  9 10  1  0  0  0
 10  1  1  0  0  0
  1  2  2  0  0  0
  2  3  1  0  0  0
  3  4  2  0  0  0
  4 15  1  0  0  0
 15 16  1  0  0  0
 16 17  1  0  0  0
 17 18  1  0  0  0
 17 19  1  0  0  0
 19 20  1  0  0  0
 20 21  2  0  0  0
 20 22  2  0  0  0
 20 23  1  0  0  0
  4  5  1  0  0  0
 10 11  2  0  0  0
 11 12  1  0  0  0
 12  7  2  0  0  0
  5  1  1  0  0  0
 23 17  1  0  0  0
  5  6  1  0  0  0
M  END
> <minimizedAffinity>
-9.61627

$$$$
OCNT-2309619


 23 25  0  0  0  0  0  0  0  0999 V2000
    0.9227   16.8065   19.3432 N   0  0  0  0  0  0  0  0  0  0  0  0
    1.8448   17.7886   19.6458 C   0  0  0  0  0  0  0  0  0  0  0  0
    1.8257   18.9014   19.1397 O   0  0  0  0  0  0  0  0  0  0  0  0
    2.7435   17.3388   20.5761 N   0  0  0  0  0  0  0  0  0  0  0  0
    1.2776   15.8680   19.4574 H   0  0  0  0  0  0  0  0  0  0  0  0
    2.5433   16.4806   21.0639 H   0  0  0  0  0  0  0  0  0  0  0  0
    3.8482   18.0044   21.1080 C   0  0  0  0  0  0  0  0  0  0  0  0
    4.6169   17.5221   22.1535 C   0  0  0  0  0  0  0  0  0  0  0  0
    5.6910   18.2878   22.5991 C   0  0  0  0  0  0  0  0  0  0  0  0
    5.9687   19.5160   21.9928 C   0  0  0  0  0  0  0  0  0  0  0  0
    7.0430   20.3225   22.4083 C   0  0  0  0  0  0  0  0  0  0  0  0
    7.2896   21.5419   21.7816 C   0  0  0  0  0  0  0  0  0  0  0  0
    6.4665   21.9576   20.7414 C   0  0  0  0  0  0  0  0  0  0  0  0
    5.3996   21.1513   20.3326 C   0  0  0  0  0  0  0  0  0  0  0  0
    5.1305   19.9311   20.9392 C   0  0  0  0  0  0  0  0  0  0  0  0
    4.0917   19.1915   20.5094 N   0  0  0  0  0  0  0  0  0  0  0  0
   -0.6195   15.5325   17.9696 C   0  0  0  0  0  0  0  0  0  0  0  0
   -0.1498   16.9590   18.3375 C   0  0  0  0  0  0  0  0  0  0  0  0
    0.3846   17.6657   17.0692 C   0  0  0  0  0  0  0  0  0  0  0  0
   -0.7278   18.0270   16.0849 C   0  0  0  0  0  0  0  0  0  0  0  0
   -1.8806   18.7272   16.7919 C   0  0  0  0  0  0  0  0  0  0  0  0
   -2.3706   17.9284   17.8689 O   0  0  0  0  0  0  0  0  0  0  0  0
   -1.3719   17.7455   18.8821 C   0  0  0  0  0  0  0  0  0  0  0  0
 17 18  1  0  0  0
 18  1  1  0  0  0
  1  2  1  0  0  0
  2  3  2  0  0  0
  2  4  1  0  0  0
  4  7  1  0  0  0
  7  8  1  0  0  0
  8  9  2  0  0  0
  9 10  1  0  0  0
 10 11  2  0  0  0
 11 12  1  0  0  0
 12 13  2  0  0  0
 13 14  1  0  0  0
 14 15  2  0  0  0
 15 16  1  0  0  0
 18 19  1  0  0  0
 19 20  1  0  0  0
 20 21  1  0  0  0
 21 22  1  0  0  0
 22 23  1  0  0  0
 23 18  1  0  0  0
 16  7  2  0  0  0
 15 10  1  0  0  0
  1  5  1  0  0  0
  4  6  1  0  0  0
M  END
> <minimizedAffinity>
-10.16346

$$$$
OCNT-2309623


 30 33  0  0  0  0  0  0  0  0999 V2000
    5.2596   18.5785   21.8624 C   0  0  0  0  0  0  0  0  0  0  0  0
    4.5084   18.6702   23.2144 C   0  0  0  0  0  0  0  0  0  0  0  0
    3.8739   17.2999   23.4177 C   0  0  0  0  0  0  0  0  0  0  0  0
    3.5999   16.8605   22.0446 N   0  0  0  0  0  0  0  0  0  0  0  0
    4.8411   17.1833   21.3237 C   0  0  0  0  0  0  0  0  0  0  0  0
    4.8603   19.7930   21.0054 C   0  0  0  0  0  0  0  0  0  0  0  0
    5.3938   21.0641   21.2984 C   0  0  0  0  0  0  0  0  0  0  0  0
    5.0427   22.1865   20.5453 C   0  0  0  0  0  0  0  0  0  0  0  0
    4.1365   22.0662   19.4969 C   0  0  0  0  0  0  0  0  0  0  0  0
    3.5712   20.8270   19.2117 C   0  0  0  0  0  0  0  0  0  0  0  0
    3.9223   19.7026   19.9640 C   0  0  0  0  0  0  0  0  0  0  0  0
    7.3047   17.2451   22.2406 N   0  0  0  0  0  0  0  0  0  0  0  0
    6.7886   18.5011   22.0489 C   0  0  0  0  0  0  0  0  0  0  0  0
    7.5379   19.4724   22.0792 O   0  0  0  0  0  0  0  0  0  0  0  0
    8.3163   17.1918   22.2488 H   0  0  0  0  0  0  0  0  0  0  0  0
    6.8166   16.4417   21.8614 H   0  0  0  0  0  0  0  0  0  0  0  0
    3.2726   15.4267   21.9614 C   0  0  0  0  0  0  0  0  0  0  0  0
    2.0118   15.1517   21.2119 C   0  0  0  0  0  0  0  0  0  0  0  0
    1.5564   15.6943   20.1026 N   0  0  0  0  0  0  0  0  0  0  0  0
    0.3527   15.0481   19.9424 C   0  0  0  0  0  0  0  0  0  0  0  0
    0.0737   14.1347   20.8843 N   0  0  0  0  0  0  0  0  0  0  0  0
    1.1772   14.2072   21.7367 O   0  0  0  0  0  0  0  0  0  0  0  0
   -0.5450   15.3059   18.7895 C   0  0  0  0  0  0  0  0  0  0  0  0
   -0.2855   16.7305   18.3605 C   0  0  0  0  0  0  0  0  0  0  0  0
   -0.3268   17.0887   17.0017 C   0  0  0  0  0  0  0  0  0  0  0  0
   -0.0850   18.4061   16.6028 C   0  0  0  0  0  0  0  0  0  0  0  0
    0.2030   19.3798   17.5569 C   0  0  0  0  0  0  0  0  0  0  0  0
    0.2501   19.0281   18.9005 C   0  0  0  0  0  0  0  0  0  0  0  0
    0.5302   19.9644   19.8167 F   0  0  0  0  0  0  0  0  0  0  0  0
    0.0112   17.7200   19.3101 C   0  0  0  0  0  0  0  0  0  0  0  0
 12 13  1  0  0  0
 13 14  2  0  0  0
 13  1  1  0  0  0
  1  6  1  0  0  0
  6  7  2  0  0  0
  7  8  1  0  0  0
  8  9  2  0  0  0
  9 10  1  0  0  0
 10 11  2  0  0  0
  1  2  1  0  0  0
  2  3  1  0  0  0
  3  4  1  0  0  0
  4 17  1  0  0  0
 17 18  1  0  0  0
 18 19  2  0  0  0
 19 20  1  0  0  0
 20 23  1  0  0  0
 23 24  1  0  0  0
 24 25  2  0  0  0
 25 26  1  0  0  0
 26 27  2  0  0  0
 27 28  1  0  0  0
 28 29  1  0  0  0
 28 30  2  0  0  0
 20 21  2  0  0  0
 21 22  1  0  0  0
  4  5  1  0  0  0
  5  1  1  0  0  0
 11  6  1  0  0  0
 22 18  1  0  0  0
 30 24  1  0  0  0
 12 15  1  0  0  0
 12 16  1  0  0  0
M  END
> <minimizedAffinity>
-7.38262

$$$$
OCNT-2309630


 32 34  0  0  0  0  0  0  0  0999 V2000
    4.0083   18.4170   19.9098 C   0  0  0  0  0  0  0  0  0  0  0  0
    2.6977   18.4256   19.4329 C   0  0  0  0  0  0  0  0  0  0  0  0
    1.7764   17.4935   19.9207 C   0  0  0  0  0  0  0  0  0  0  0  0
    2.1517   16.5557   20.8918 C   0  0  0  0  0  0  0  0  0  0  0  0
    3.4598   16.5755   21.3805 C   0  0  0  0  0  0  0  0  0  0  0  0
    4.3838   17.5072   20.8956 C   0  0  0  0  0  0  0  0  0  0  0  0
    1.1631   15.6557   21.3343 N   0  0  0  0  0  0  0  0  0  0  0  0
    1.3466   14.4108   21.8936 C   0  0  0  0  0  0  0  0  0  0  0  0
    2.4074   13.8180   22.0385 O   0  0  0  0  0  0  0  0  0  0  0  0
    0.1366   13.8655   22.2710 N   0  0  0  0  0  0  0  0  0  0  0  0
    0.2065   15.8876   21.1122 H   0  0  0  0  0  0  0  0  0  0  0  0
   -0.5516   14.5264   22.6019 H   0  0  0  0  0  0  0  0  0  0  0  0
    0.1098   12.5982   22.9763 C   0  0  0  0  0  0  0  0  0  0  0  0
   -1.2393   12.3562   23.6156 C   0  0  0  0  0  0  0  0  0  0  0  0
   -1.6880   13.1724   24.6538 C   0  0  0  0  0  0  0  0  0  0  0  0
   -2.9527   12.9457   25.1952 C   0  0  0  0  0  0  0  0  0  0  0  0
   -3.7350   11.9199   24.6818 C   0  0  0  0  0  0  0  0  0  0  0  0
   -5.2973   11.6068   25.3184 Cl  0  0  0  0  0  0  0  0  0  0  0  0
   -3.2247   11.1620   23.6400 C   0  0  0  0  0  0  0  0  0  0  0  0
   -2.0006   11.3592   23.0892 N   0  0  0  0  0  0  0  0  0  0  0  0
    4.9632   19.3247   19.5064 O   0  0  0  0  0  0  0  0  0  0  0  0
    5.2451   21.4324   20.6594 C   0  0  0  0  0  0  0  0  0  0  0  0
    5.8692   22.1472   21.6968 C   0  0  0  0  0  0  0  0  0  0  0  0
    6.7689   21.5202   22.5627 C   0  0  0  0  0  0  0  0  0  0  0  0
    7.0555   20.1672   22.4070 C   0  0  0  0  0  0  0  0  0  0  0  0
    6.4504   19.4434   21.3808 C   0  0  0  0  0  0  0  0  0  0  0  0
    5.5634   20.0754   20.4945 C   0  0  0  0  0  0  0  0  0  0  0  0
    2.9670   21.8958   19.8558 N   0  0  0  0  0  0  0  0  0  0  0  0
    4.2960   22.1958   19.7957 C   0  0  0  0  0  0  0  0  0  0  0  0
    4.6878   23.0846   19.0467 O   0  0  0  0  0  0  0  0  0  0  0  0
    2.3340   22.4225   19.2699 H   0  0  0  0  0  0  0  0  0  0  0  0
    2.5920   21.1745   20.4575 H   0  0  0  0  0  0  0  0  0  0  0  0
 28 29  1  0  0  0
 29 30  2  0  0  0
 29 22  1  0  0  0
 22 23  2  0  0  0
 23 24  1  0  0  0
 24 25  2  0  0  0
 25 26  1  0  0  0
 26 27  2  0  0  0
 27 21  1  0  0  0
 21  1  1  0  0  0
  1  2  1  0  0  0
  2  3  2  0  0  0
  3  4  1  0  0  0
  4  7  1  0  0  0
  7  8  1  0  0  0
  8  9  2  0  0  0
  8 10  1  0  0  0
 10 13  1  0  0  0
 13 14  1  0  0  0
 14 15  2  0  0  0
 15 16  1  0  0  0
 16 17  2  0  0  0
 17 18  1  0  0  0
 17 19  1  0  0  0
 19 20  2  0  0  0
  4  5  2  0  0  0
  5  6  1  0  0  0
 27 22  1  0  0  0
  6  1  2  0  0  0
 20 14  1  0  0  0
 28 31  1  0  0  0
 28 32  1  0  0  0
  7 11  1  0  0  0
 10 12  1  0  0  0
M  END
> <minimizedAffinity>
-1.76918

$$$$
