OCNT-2311801


 30 33  0  0  0  0  0  0  0  0999 V2000
    0.9621   18.8956   18.9495 C   0  0  0  0  0  0  0  0  0  0  0  0
    0.3054   19.7751   19.5007 O   0  0  0  0  0  0  0  0  0  0  0  0
    2.3386   18.8845   18.8457 N   0  0  0  0  0  0  0  0  0  0  0  0
    2.7341   18.0854   18.3608 H   0  0  0  0  0  0  0  0  0  0  0  0
   -0.6564   17.8050   17.2431 C   0  0  0  0  0  0  0  0  0  0  0  0
   -1.2724   16.6328   16.7740 C   0  0  0  0  0  0  0  0  0  0  0  0
   -1.0366   15.3840   17.3763 C   0  0  0  0  0  0  0  0  0  0  0  0
   -1.6548   14.2125   16.9069 C   0  0  0  0  0  0  0  0  0  0  0  0
   -1.4099   12.9810   17.5167 C   0  0  0  0  0  0  0  0  0  0  0  0
   -0.5444   12.9041   18.6031 C   0  0  0  0  0  0  0  0  0  0  0  0
    0.0772   14.0584   19.0802 C   0  0  0  0  0  0  0  0  0  0  0  0
   -0.1601   15.3038   18.4756 C   0  0  0  0  0  0  0  0  0  0  0  0
    0.4580   16.4729   18.9417 C   0  0  0  0  0  0  0  0  0  0  0  0
    0.2260   17.7264   18.3405 C   0  0  0  0  0  0  0  0  0  0  0  0
   -2.1895   19.3711   16.2644 C   0  0  0  0  0  0  0  0  0  0  0  0
   -0.8666   19.0386   16.6755 O   0  0  0  0  0  0  0  0  0  0  0  0
    3.2590   19.8388   19.3200 C   0  0  0  0  0  0  0  0  0  0  0  0
    2.9024   21.0808   19.8442 C   0  0  0  0  0  0  0  0  0  0  0  0
    3.8812   21.9780   20.2974 C   0  0  0  0  0  0  0  0  0  0  0  0
    5.2307   21.6403   20.2333 C   0  0  0  0  0  0  0  0  0  0  0  0
    5.5903   20.3994   19.7063 C   0  0  0  0  0  0  0  0  0  0  0  0
    4.6152   19.5054   19.2532 C   0  0  0  0  0  0  0  0  0  0  0  0
    6.2839   22.4073   20.6430 O   0  0  0  0  0  0  0  0  0  0  0  0
    7.3617   21.7804   21.3400 C   0  0  0  0  0  0  0  0  0  0  0  0
    6.9055   21.2790   22.7062 C   0  0  0  0  0  0  0  0  0  0  0  0
    6.3196   19.9597   22.6335 N   0  0  0  0  0  0  0  0  0  0  0  0
    5.0531   19.6140   23.0109 C   0  0  0  0  0  0  0  0  0  0  0  0
    4.9633   18.2666   22.7491 C   0  0  0  0  0  0  0  0  0  0  0  0
    6.1408   17.7928   22.2305 N   0  0  0  0  0  0  0  0  0  0  0  0
    6.9424   18.8326   22.1810 C   0  0  0  0  0  0  0  0  0  0  0  0
 15 16  1  0  0  0
 16  5  1  0  0  0
  5  6  2  0  0  0
  6  7  1  0  0  0
  7  8  2  0  0  0
  8  9  1  0  0  0
  9 10  2  0  0  0
 10 11  1  0  0  0
 11 12  2  0  0  0
 12 13  1  0  0  0
 13 14  2  0  0  0
 14  1  1  0  0  0
  1  2  2  0  0  0
  1  3  1  0  0  0
  3 17  1  0  0  0
 17 18  1  0  0  0
 18 19  2  0  0  0
 19 20  1  0  0  0
 20 23  1  0  0  0
 23 24  1  0  0  0
 24 25  1  0  0  0
 25 26  1  0  0  0
 26 27  1  0  0  0
 27 28  2  0  0  0
 28 29  1  0  0  0
 29 30  2  0  0  0
 20 21  2  0  0  0
 21 22  1  0  0  0
 14  5  1  0  0  0
 22 17  2  0  0  0
 12  7  1  0  0  0
 30 26  1  0  0  0
  3  4  1  0  0  0
M  END
> <minimizedAffinity>
-2.01994

$$$$
OCNT-2311803


 29 33  0  0  0  0  0  0  0  0999 V2000
    1.7695   13.6616   21.7268 C   0  0  0  0  0  0  0  0  0  0  0  0
    1.7465   15.0114   21.0711 C   0  0  0  0  0  0  0  0  0  0  0  0
    2.3973   16.0989   21.6817 C   0  0  0  0  0  0  0  0  0  0  0  0
    2.3748   17.3734   21.1032 C   0  0  0  0  0  0  0  0  0  0  0  0
    1.7023   17.5519   19.9065 C   0  0  0  0  0  0  0  0  0  0  0  0
    1.0069   16.4878   19.3257 C   0  0  0  0  0  0  0  0  0  0  0  0
    1.0322   15.2148   19.8847 C   0  0  0  0  0  0  0  0  0  0  0  0
    0.2983   16.9276   18.0720 C   0  0  0  0  0  0  0  0  0  0  0  0
   -1.1654   16.4780   17.9898 C   0  0  0  0  0  0  0  0  0  0  0  0
   -1.8879   17.3519   17.0642 N   0  0  0  0  0  0  0  0  0  0  0  0
   -3.1996   16.8113   16.7172 C   0  0  0  0  0  0  0  0  0  0  0  0
   -2.0027   18.7257   17.5812 C   0  0  0  0  0  0  0  0  0  0  0  0
   -0.8787   19.1282   18.5425 C   0  0  0  0  0  0  0  0  0  0  0  0
    0.4486   18.4674   18.1543 C   0  0  0  0  0  0  0  0  0  0  0  0
    1.5206   18.7203   19.1417 N   0  0  0  0  0  0  0  0  0  0  0  0
    2.1244   19.9689   19.2331 C   0  0  0  0  0  0  0  0  0  0  0  0
    1.6092   20.9695   18.7330 O   0  0  0  0  0  0  0  0  0  0  0  0
    3.4426   20.0784   19.8532 C   0  0  0  0  0  0  0  0  0  0  0  0
    4.2860   21.1699   19.8377 C   0  0  0  0  0  0  0  0  0  0  0  0
    5.4117   20.8869   20.5840 N   0  0  0  0  0  0  0  0  0  0  0  0
    6.4455   21.8896   20.7552 C   0  0  0  0  0  0  0  0  0  0  0  0
    7.8326   21.3880   21.1005 C   0  0  0  0  0  0  0  0  0  0  0  0
    7.8360   20.7354   22.4651 C   0  0  0  0  0  0  0  0  0  0  0  0
    7.3941   19.3689   22.4191 N   0  0  0  0  0  0  0  0  0  0  0  0
    6.2179   18.8517   21.9571 C   0  0  0  0  0  0  0  0  0  0  0  0
    5.9859   17.6836   22.2758 O   0  0  0  0  0  0  0  0  0  0  0  0
    5.3105   19.6218   21.1250 C   0  0  0  0  0  0  0  0  0  0  0  0
    4.0768   19.1319   20.6956 C   0  0  0  0  0  0  0  0  0  0  0  0
    7.8512   18.7082   23.0366 H   0  0  0  0  0  0  0  0  0  0  0  0
  1  2  1  0  0  0
  2  3  1  0  0  0
  3  4  2  0  0  0
  4  5  1  0  0  0
  5  6  2  0  0  0
  6  7  1  0  0  0
  6  8  1  0  0  0
  8  9  1  0  0  0
  9 10  1  0  0  0
 10 11  1  0  0  0
 10 12  1  0  0  0
 12 13  1  0  0  0
 13 14  1  0  0  0
 14 15  1  0  0  0
 15 16  1  0  0  0
 16 17  2  0  0  0
 16 18  1  0  0  0
 18 19  2  0  0  0
 19 20  1  0  0  0
 20 21  1  0  0  0
 21 22  1  0  0  0
 22 23  1  0  0  0
 23 24  1  0  0  0
 24 25  1  0  0  0
 25 26  2  0  0  0
 25 27  1  0  0  0
 27 28  2  0  0  0
  7  2  2  0  0  0
 14  8  1  0  0  0
 28 18  1  0  0  0
 15  5  1  0  0  0
 27 20  1  0  0  0
 24 29  1  0  0  0
M  END
> <minimizedAffinity>
-2.37459

$$$$
OCNT-2311807


 26 29  0  0  0  0  0  0  0  0999 V2000
    4.4685   17.8181   23.2745 O   0  0  0  0  0  0  0  0  0  0  0  0
    4.0150   17.9026   22.1296 C   0  0  0  0  0  0  0  0  0  0  0  0
    3.1820   16.8761   21.6492 N   0  0  0  0  0  0  0  0  0  0  0  0
    3.0687   15.6514   22.4383 C   0  0  0  0  0  0  0  0  0  0  0  0
    2.7833   14.4400   21.5587 C   0  0  0  0  0  0  0  0  0  0  0  0
    1.4906   14.5946   20.7555 C   0  0  0  0  0  0  0  0  0  0  0  0
    1.1317   16.0641   20.4780 C   0  0  0  0  0  0  0  0  0  0  0  0
    2.3743   16.9626   20.4192 C   0  0  0  0  0  0  0  0  0  0  0  0
    4.3286   19.0372   21.2610 C   0  0  0  0  0  0  0  0  0  0  0  0
    3.5872   19.4147   20.2248 N   0  0  0  0  0  0  0  0  0  0  0  0
    4.2303   20.4755   19.6489 C   0  0  0  0  0  0  0  0  0  0  0  0
    5.3859   20.7656   20.3269 C   0  0  0  0  0  0  0  0  0  0  0  0
    6.4272   21.7252   20.1990 C   0  0  0  0  0  0  0  0  0  0  0  0
    7.4451   21.7141   21.0804 C   0  0  0  0  0  0  0  0  0  0  0  0
    7.5039   20.7432   22.1600 C   0  0  0  0  0  0  0  0  0  0  0  0
    6.5195   19.8357   22.2778 C   0  0  0  0  0  0  0  0  0  0  0  0
    5.4600   19.8393   21.3638 N   0  0  0  0  0  0  0  0  0  0  0  0
    0.2965   16.2141   19.2937 N   0  0  0  0  0  0  0  0  0  0  0  0
   -0.3631   15.2185   18.6338 C   0  0  0  0  0  0  0  0  0  0  0  0
   -1.0181   15.8232   17.5887 C   0  0  0  0  0  0  0  0  0  0  0  0
   -0.6961   17.2042   17.6860 C   0  0  0  0  0  0  0  0  0  0  0  0
    0.1166   17.4274   18.7395 N   0  0  0  0  0  0  0  0  0  0  0  0
   -1.1670   18.3027   16.7697 C   0  0  0  0  0  0  0  0  0  0  0  0
   -2.3604   18.8297   17.1546 F   0  0  0  0  0  0  0  0  0  0  0  0
   -1.3113   17.8851   15.4838 F   0  0  0  0  0  0  0  0  0  0  0  0
   -0.2856   19.3426   16.7356 F   0  0  0  0  0  0  0  0  0  0  0  0
  1  2  2  0  0  0
  2  9  1  0  0  0
  9 10  2  0  0  0
 10 11  1  0  0  0
 11 12  2  0  0  0
 12 13  1  0  0  0
 13 14  2  0  0  0
 14 15  1  0  0  0
 15 16  2  0  0  0
 16 17  1  0  0  0
  2  3  1  0  0  0
  3  4  1  0  0  0
  4  5  1  0  0  0
  5  6  1  0  0  0
  6  7  1  0  0  0
  7 18  1  0  0  0
 18 19  1  0  0  0
 19 20  2  0  0  0
 20 21  1  0  0  0
 21 23  1  0  0  0
 23 24  1  0  0  0
 23 25  1  0  0  0
 23 26  1  0  0  0
 21 22  2  0  0  0
  7  8  1  0  0  0
 17  9  1  0  0  0
  8  3  1  0  0  0
 17 12  1  0  0  0
 22 18  1  0  0  0
M  END
> <minimizedAffinity>
-10.23251

$$$$
OCNT-2311808


 37 41  0  0  0  0  0  0  0  0999 V2000
   -1.9769   18.0460   17.0590 S   0  0  0  0  0  0  0  0  0  0  0  0
   -2.8711   17.4827   18.0468 O   0  0  0  0  0  0  0  0  0  0  0  0
   -2.4325   19.0195   16.0900 O   0  0  0  0  0  0  0  0  0  0  0  0
    1.7235   19.6413   19.2221 C   0  0  0  0  0  0  0  0  0  0  0  0
    1.5781   19.8210   17.8427 C   0  0  0  0  0  0  0  0  0  0  0  0
    0.4223   19.3894   17.1866 C   0  0  0  0  0  0  0  0  0  0  0  0
   -0.5819   18.7526   17.9158 C   0  0  0  0  0  0  0  0  0  0  0  0
   -0.4765   18.6133   19.3021 C   0  0  0  0  0  0  0  0  0  0  0  0
    0.6782   19.0554   19.9491 C   0  0  0  0  0  0  0  0  0  0  0  0
    4.0180   18.0036   20.1584 O   0  0  0  0  0  0  0  0  0  0  0  0
    3.9280   19.2155   20.3208 C   0  0  0  0  0  0  0  0  0  0  0  0
    2.8694   20.0238   19.9450 N   0  0  0  0  0  0  0  0  0  0  0  0
    2.9385   21.0068   20.1721 H   0  0  0  0  0  0  0  0  0  0  0  0
    5.0614   19.9159   20.9912 C   0  0  0  0  0  0  0  0  0  0  0  0
    5.9433   19.2415   21.8494 C   0  0  0  0  0  0  0  0  0  0  0  0
    6.9835   19.9413   22.4683 C   0  0  0  0  0  0  0  0  0  0  0  0
    7.1439   21.3020   22.2166 C   0  0  0  0  0  0  0  0  0  0  0  0
    8.1378   21.9706   22.8167 F   0  0  0  0  0  0  0  0  0  0  0  0
    6.2900   21.9778   21.3506 C   0  0  0  0  0  0  0  0  0  0  0  0
    5.2499   21.2819   20.7309 C   0  0  0  0  0  0  0  0  0  0  0  0
   -1.2548   16.7864   16.1733 N   0  0  0  0  0  0  0  0  0  0  0  0
   -0.5488   17.1435   15.5301 H   0  0  0  0  0  0  0  0  0  0  0  0
   -0.9491   15.5850   16.8778 C   0  0  0  0  0  0  0  0  0  0  0  0
   -1.3767   14.3610   16.3721 C   0  0  0  0  0  0  0  0  0  0  0  0
   -1.1877   13.2004   17.1172 C   0  0  0  0  0  0  0  0  0  0  0  0
   -0.6150   13.2746   18.3858 C   0  0  0  0  0  0  0  0  0  0  0  0
   -0.2271   14.5091   18.9353 C   0  0  0  0  0  0  0  0  0  0  0  0
   -0.3633   15.6612   18.1497 C   0  0  0  0  0  0  0  0  0  0  0  0
    0.2672   14.5546   20.3115 C   0  0  0  0  0  0  0  0  0  0  0  0
   -0.3794   14.1625   21.3917 N   0  0  0  0  0  0  0  0  0  0  0  0
    0.4905   14.4457   22.4193 C   0  0  0  0  0  0  0  0  0  0  0  0
    1.6350   15.0288   22.0454 N   0  0  0  0  0  0  0  0  0  0  0  0
    1.4799   15.0697   20.7081 N   0  0  0  0  0  0  0  0  0  0  0  0
    2.2123   15.4956   20.1441 H   0  0  0  0  0  0  0  0  0  0  0  0
    0.1422   14.1120   23.8975 C   0  0  0  0  0  0  0  0  0  0  0  0
   -1.1387   14.6641   24.4704 C   0  0  0  0  0  0  0  0  0  0  0  0
   -0.9993   13.1901   24.2397 C   0  0  0  0  0  0  0  0  0  0  0  0
 10 11  2  0  0  0
 11 12  1  0  0  0
 12  4  1  0  0  0
  4  5  1  0  0  0
  5  6  2  0  0  0
  6  7  1  0  0  0
  7  1  1  0  0  0
  1  2  2  0  0  0
  1  3  2  0  0  0
  1 21  1  0  0  0
 21 23  1  0  0  0
 23 24  2  0  0  0
 24 25  1  0  0  0
 25 26  2  0  0  0
 26 27  1  0  0  0
 27 29  1  0  0  0
 29 30  2  0  0  0
 30 31  1  0  0  0
 31 35  1  0  0  0
 35 36  1  0  0  0
 36 37  1  0  0  0
 31 32  2  0  0  0
 32 33  1  0  0  0
 27 28  2  0  0  0
  7  8  2  0  0  0
  8  9  1  0  0  0
 11 14  1  0  0  0
 14 15  1  0  0  0
 15 16  2  0  0  0
 16 17  1  0  0  0
 17 18  1  0  0  0
 17 19  2  0  0  0
 19 20  1  0  0  0
  9  4  2  0  0  0
 20 14  2  0  0  0
 28 23  1  0  0  0
 33 29  1  0  0  0
 37 35  1  0  0  0
 12 13  1  0  0  0
 21 22  1  0  0  0
 33 34  1  0  0  0
M  END
> <minimizedAffinity>
-4.60080

$$$$
OCNT-2311815


 28 32  0  0  0  0  0  0  0  0999 V2000
    4.4759   20.1818   20.2239 C   0  0  0  0  0  0  0  0  0  0  0  0
    5.9212   20.3673   19.7269 C   0  0  0  0  0  0  0  0  0  0  0  0
    6.9041   20.4802   20.8906 C   0  0  0  0  0  0  0  0  0  0  0  0
    6.2919   20.9418   22.0928 O   0  0  0  0  0  0  0  0  0  0  0  0
    5.3020   21.9374   21.8749 C   0  0  0  0  0  0  0  0  0  0  0  0
    4.0928   21.3609   21.1433 C   0  0  0  0  0  0  0  0  0  0  0  0
    4.3706   18.8674   20.9670 C   0  0  0  0  0  0  0  0  0  0  0  0
    4.3179   17.6310   20.5162 N   0  0  0  0  0  0  0  0  0  0  0  0
    4.1364   16.9063   21.6682 C   0  0  0  0  0  0  0  0  0  0  0  0
    4.1068   17.6345   22.7922 N   0  0  0  0  0  0  0  0  0  0  0  0
    4.2683   18.9416   22.3305 O   0  0  0  0  0  0  0  0  0  0  0  0
    3.9542   15.4313   21.6564 C   0  0  0  0  0  0  0  0  0  0  0  0
    2.5401   15.0281   21.8549 C   0  0  0  0  0  0  0  0  0  0  0  0
    1.4627   14.7980   21.0294 C   0  0  0  0  0  0  0  0  0  0  0  0
    0.3715   14.4296   21.7739 N   0  0  0  0  0  0  0  0  0  0  0  0
    0.8139   14.4389   23.0157 C   0  0  0  0  0  0  0  0  0  0  0  0
    2.1310   14.7931   23.1397 O   0  0  0  0  0  0  0  0  0  0  0  0
   -0.0775   14.0844   24.2415 C   0  0  0  0  0  0  0  0  0  0  0  0
   -1.4939   14.5983   24.3084 C   0  0  0  0  0  0  0  0  0  0  0  0
   -1.2385   13.1411   24.0462 C   0  0  0  0  0  0  0  0  0  0  0  0
    3.5112   20.0644   19.1638 O   0  0  0  0  0  0  0  0  0  0  0  0
    2.1462   20.2945   19.4965 C   0  0  0  0  0  0  0  0  0  0  0  0
   -0.4107   17.3834   17.5935 C   0  0  0  0  0  0  0  0  0  0  0  0
   -0.2312   18.6398   17.0181 C   0  0  0  0  0  0  0  0  0  0  0  0
    0.6051   19.5769   17.6285 C   0  0  0  0  0  0  0  0  0  0  0  0
    1.2778   19.2641   18.8182 C   0  0  0  0  0  0  0  0  0  0  0  0
    1.0797   17.9990   19.3921 C   0  0  0  0  0  0  0  0  0  0  0  0
    0.2443   17.0627   18.7805 C   0  0  0  0  0  0  0  0  0  0  0  0
 23 24  2  0  0  0
 24 25  1  0  0  0
 25 26  2  0  0  0
 26 22  1  0  0  0
 22 21  1  0  0  0
 21  1  1  0  0  0
  1  7  1  0  0  0
  7  8  2  0  0  0
  8  9  1  0  0  0
  9 12  1  0  0  0
 12 13  1  0  0  0
 13 14  2  0  0  0
 14 15  1  0  0  0
 15 16  2  0  0  0
 16 18  1  0  0  0
 18 19  1  0  0  0
 19 20  1  0  0  0
 16 17  1  0  0  0
  9 10  2  0  0  0
 10 11  1  0  0  0
  1  2  1  0  0  0
  2  3  1  0  0  0
  3  4  1  0  0  0
  4  5  1  0  0  0
  5  6  1  0  0  0
 26 27  1  0  0  0
 27 28  2  0  0  0
 28 23  1  0  0  0
  6  1  1  0  0  0
 11  7  1  0  0  0
 17 13  1  0  0  0
 20 18  1  0  0  0
M  END
> <minimizedAffinity>
-8.22929

$$$$
OCNT-2311830


 24 26  0  0  0  0  0  0  0  0999 V2000
    4.8295   18.4524   22.1524 S   0  0  0  0  0  0  0  0  0  0  0  0
    4.3779   18.6017   23.5203 O   0  0  0  0  0  0  0  0  0  0  0  0
    6.0649   17.7679   21.8365 O   0  0  0  0  0  0  0  0  0  0  0  0
    3.5154   17.6217   21.2789 C   0  0  0  0  0  0  0  0  0  0  0  0
    2.8516   18.2631   20.2317 C   0  0  0  0  0  0  0  0  0  0  0  0
    1.8338   17.5920   19.5491 C   0  0  0  0  0  0  0  0  0  0  0  0
    1.4880   16.2762   19.9036 C   0  0  0  0  0  0  0  0  0  0  0  0
    2.1737   15.6359   20.9471 C   0  0  0  0  0  0  0  0  0  0  0  0
    3.1898   16.3087   21.6324 C   0  0  0  0  0  0  0  0  0  0  0  0
    0.4510   15.6135   19.1955 N   0  0  0  0  0  0  0  0  0  0  0  0
   -0.3762   16.1034   18.2101 C   0  0  0  0  0  0  0  0  0  0  0  0
   -1.1842   15.0455   17.8736 C   0  0  0  0  0  0  0  0  0  0  0  0
   -0.8522   13.9626   18.6263 N   0  0  0  0  0  0  0  0  0  0  0  0
    0.1428   14.3133   19.4294 N   0  0  0  0  0  0  0  0  0  0  0  0
    4.8266   19.9682   21.3931 N   0  0  0  0  0  0  0  0  0  0  0  0
    5.7039   21.0260   21.9846 C   0  0  0  0  0  0  0  0  0  0  0  0
    5.5016   21.3361   23.4626 C   0  0  0  0  0  0  0  0  0  0  0  0
    5.1279   22.3586   22.4383 C   0  0  0  0  0  0  0  0  0  0  0  0
    7.1249   21.0297   21.4501 C   0  0  0  0  0  0  0  0  0  0  0  0
    7.5503   21.8386   20.6385 O   0  0  0  0  0  0  0  0  0  0  0  0
    7.8980   20.0125   21.8822 O   0  0  0  0  0  0  0  0  0  0  0  0
    8.7735   20.1927   21.4830 H   0  0  0  0  0  0  0  0  0  0  0  0
    3.8885   21.4009   19.5682 C   0  0  0  0  0  0  0  0  0  0  0  0
    4.4713   20.0584   19.9644 C   0  0  0  0  0  0  0  0  0  0  0  0
 23 24  1  0  0  0
 24 15  1  0  0  0
 15 16  1  0  0  0
 16 19  1  0  0  0
 19 20  2  0  0  0
 19 21  1  0  0  0
 16 17  1  0  0  0
 17 18  1  0  0  0
 15  1  1  0  0  0
  1  2  2  0  0  0
  1  3  2  0  0  0
  1  4  1  0  0  0
  4  5  1  0  0  0
  5  6  2  0  0  0
  6  7  1  0  0  0
  7 10  1  0  0  0
 10 11  1  0  0  0
 11 12  2  0  0  0
 12 13  1  0  0  0
 13 14  2  0  0  0
  7  8  2  0  0  0
  8  9  1  0  0  0
 18 16  1  0  0  0
  9  4  2  0  0  0
 14 10  1  0  0  0
 21 22  1  0  0  0
M  END
> <minimizedAffinity>
-5.52390

$$$$
OCNT-2311839


 32 36  0  0  0  0  0  0  0  0999 V2000
    7.3731   21.7658   20.5690 C   0  0  0  0  0  0  0  0  0  0  0  0
    6.5330   20.6345   21.0855 C   0  0  0  0  0  0  0  0  0  0  0  0
    7.0137   19.7997   22.0938 C   0  0  0  0  0  0  0  0  0  0  0  0
    6.2472   18.7270   22.5541 C   0  0  0  0  0  0  0  0  0  0  0  0
    4.9874   18.4592   22.0086 C   0  0  0  0  0  0  0  0  0  0  0  0
    4.4858   19.2903   20.9701 C   0  0  0  0  0  0  0  0  0  0  0  0
    5.2780   20.3663   20.5216 C   0  0  0  0  0  0  0  0  0  0  0  0
    3.1603   19.0375   20.3729 C   0  0  0  0  0  0  0  0  0  0  0  0
    2.5289   19.8121   19.5032 N   0  0  0  0  0  0  0  0  0  0  0  0
    1.3513   19.1532   19.2643 C   0  0  0  0  0  0  0  0  0  0  0  0
    1.2191   17.9963   19.9141 N   0  0  0  0  0  0  0  0  0  0  0  0
    2.3656   17.9464   20.6093 N   0  0  0  0  0  0  0  0  0  0  0  0
    2.5361   17.1501   21.2112 H   0  0  0  0  0  0  0  0  0  0  0  0
    0.2583   19.7001   18.3044 C   0  0  0  0  0  0  0  0  0  0  0  0
    0.1365   19.1265   16.9150 C   0  0  0  0  0  0  0  0  0  0  0  0
   -0.9148   18.8228   17.9445 C   0  0  0  0  0  0  0  0  0  0  0  0
    4.1881   17.3749   22.4514 N   0  0  0  0  0  0  0  0  0  0  0  0
    4.0208   16.1255   21.8842 C   0  0  0  0  0  0  0  0  0  0  0  0
    4.5805   15.7147   20.8713 O   0  0  0  0  0  0  0  0  0  0  0  0
    3.6754   17.5762   23.3132 H   0  0  0  0  0  0  0  0  0  0  0  0
    3.0786   15.2417   22.6664 C   0  0  0  0  0  0  0  0  0  0  0  0
    1.8515   15.0374   21.9387 N   0  0  0  0  0  0  0  0  0  0  0  0
    0.7830   14.4639   22.5183 N   0  0  0  0  0  0  0  0  0  0  0  0
   -0.0800   14.2865   21.5298 N   0  0  0  0  0  0  0  0  0  0  0  0
    0.5370   14.7131   20.3750 C   0  0  0  0  0  0  0  0  0  0  0  0
    1.7894   15.1522   20.5972 N   0  0  0  0  0  0  0  0  0  0  0  0
   -0.1055   14.6581   19.0686 C   0  0  0  0  0  0  0  0  0  0  0  0
   -0.3148   15.8318   18.3292 C   0  0  0  0  0  0  0  0  0  0  0  0
   -0.9259   15.7825   17.0733 C   0  0  0  0  0  0  0  0  0  0  0  0
   -1.3366   14.5608   16.5440 C   0  0  0  0  0  0  0  0  0  0  0  0
   -1.1393   13.3873   17.2699 C   0  0  0  0  0  0  0  0  0  0  0  0
   -0.5256   13.4350   18.5240 C   0  0  0  0  0  0  0  0  0  0  0  0
  1  2  1  0  0  0
  2  3  1  0  0  0
  3  4  2  0  0  0
  4  5  1  0  0  0
  5 17  1  0  0  0
 17 18  1  0  0  0
 18 19  2  0  0  0
 18 21  1  0  0  0
 21 22  1  0  0  0
 22 23  1  0  0  0
 23 24  2  0  0  0
 24 25  1  0  0  0
 25 27  1  0  0  0
 27 28  2  0  0  0
 28 29  1  0  0  0
 29 30  2  0  0  0
 30 31  1  0  0  0
 31 32  2  0  0  0
 25 26  2  0  0  0
  5  6  2  0  0  0
  6  8  1  0  0  0
  8  9  2  0  0  0
  9 10  1  0  0  0
 10 14  1  0  0  0
 14 15  1  0  0  0
 15 16  1  0  0  0
 10 11  2  0  0  0
 11 12  1  0  0  0
  6  7  1  0  0  0
  7  2  2  0  0  0
 26 22  1  0  0  0
 12  8  1  0  0  0
 32 27  1  0  0  0
 16 14  1  0  0  0
 17 20  1  0  0  0
 12 13  1  0  0  0
M  END
> <minimizedAffinity>
-8.93787

$$$$
OCNT-2311855


 26 27  0  0  0  0  0  0  0  0999 V2000
    3.9671   17.4529   21.0502 N   0  0  0  0  0  0  0  0  0  0  0  0
    3.5240   18.2304   20.5564 H   0  0  0  0  0  0  0  0  0  0  0  0
    5.1258   18.0528   22.1389 S   0  0  0  0  0  0  0  0  0  0  0  0
    4.4571   18.2142   23.4132 O   0  0  0  0  0  0  0  0  0  0  0  0
    6.3016   17.2179   21.9991 O   0  0  0  0  0  0  0  0  0  0  0  0
    4.6538   20.3001   20.5996 C   0  0  0  0  0  0  0  0  0  0  0  0
    5.0248   21.5542   20.1220 C   0  0  0  0  0  0  0  0  0  0  0  0
    6.2511   22.0983   20.5047 C   0  0  0  0  0  0  0  0  0  0  0  0
    7.0595   21.3770   21.3718 C   0  0  0  0  0  0  0  0  0  0  0  0
    6.7262   20.1709   21.8735 N   0  0  0  0  0  0  0  0  0  0  0  0
    5.5301   19.6630   21.4684 C   0  0  0  0  0  0  0  0  0  0  0  0
    3.4283   19.7752   20.3070 O   0  0  0  0  0  0  0  0  0  0  0  0
    1.3378   20.5273   19.4304 C   0  0  0  0  0  0  0  0  0  0  0  0
    2.8324   20.4341   19.1800 C   0  0  0  0  0  0  0  0  0  0  0  0
    3.0583   16.4366   21.5778 C   0  0  0  0  0  0  0  0  0  0  0  0
    1.8923   16.2310   20.6294 C   0  0  0  0  0  0  0  0  0  0  0  0
    1.6964   17.1598   19.5868 C   0  0  0  0  0  0  0  0  0  0  0  0
    0.6545   16.9997   18.6738 C   0  0  0  0  0  0  0  0  0  0  0  0
   -0.1949   15.9104   18.7915 C   0  0  0  0  0  0  0  0  0  0  0  0
   -1.1921   15.7527   17.9115 F   0  0  0  0  0  0  0  0  0  0  0  0
   -0.0249   14.9780   19.8080 C   0  0  0  0  0  0  0  0  0  0  0  0
    1.0158   15.1224   20.7463 C   0  0  0  0  0  0  0  0  0  0  0  0
    1.1745   14.0617   21.8201 C   0  0  0  0  0  0  0  0  0  0  0  0
    2.0787   13.1033   21.4849 F   0  0  0  0  0  0  0  0  0  0  0  0
    0.0102   13.3903   22.0643 F   0  0  0  0  0  0  0  0  0  0  0  0
    1.5525   14.5631   23.0257 F   0  0  0  0  0  0  0  0  0  0  0  0
 13 14  1  0  0  0
 14 12  1  0  0  0
 12  6  1  0  0  0
  6  7  1  0  0  0
  7  8  2  0  0  0
  8  9  1  0  0  0
  9 10  2  0  0  0
 10 11  1  0  0  0
 11  3  1  0  0  0
  3  4  2  0  0  0
  3  5  2  0  0  0
  3  1  1  0  0  0
  1 15  1  0  0  0
 15 16  1  0  0  0
 16 17  1  0  0  0
 17 18  2  0  0  0
 18 19  1  0  0  0
 19 20  1  0  0  0
 19 21  2  0  0  0
 21 22  1  0  0  0
 22 23  1  0  0  0
 23 24  1  0  0  0
 23 25  1  0  0  0
 23 26  1  0  0  0
 11  6  2  0  0  0
 22 16  2  0  0  0
  1  2  1  0  0  0
M  END
> <minimizedAffinity>
-10.34168

$$$$
OCNT-2311870


 28 30  0  0  0  0  0  0  0  0999 V2000
    3.5717   16.4817   21.0594 N   0  0  0  0  0  0  0  0  0  0  0  0
    3.7891   16.1552   20.1191 H   0  0  0  0  0  0  0  0  0  0  0  0
   -0.0076   17.1698   18.6319 C   0  0  0  0  0  0  0  0  0  0  0  0
   -0.5456   15.9314   18.2924 C   0  0  0  0  0  0  0  0  0  0  0  0
   -0.1905   14.7907   19.0183 C   0  0  0  0  0  0  0  0  0  0  0  0
    0.7108   14.8691   20.0901 C   0  0  0  0  0  0  0  0  0  0  0  0
    1.0401   13.6126   20.8575 C   0  0  0  0  0  0  0  0  0  0  0  0
    2.2859   13.7482   21.7283 C   0  0  0  0  0  0  0  0  0  0  0  0
    2.2385   15.0489   22.5222 C   0  0  0  0  0  0  0  0  0  0  0  0
    2.2258   16.2751   21.5952 C   0  0  0  0  0  0  0  0  0  0  0  0
    1.2379   16.1205   20.4552 C   0  0  0  0  0  0  0  0  0  0  0  0
    0.8773   17.2569   19.7094 C   0  0  0  0  0  0  0  0  0  0  0  0
   -1.4321   18.4216   17.1990 C   0  0  0  0  0  0  0  0  0  0  0  0
   -0.2590   18.3558   17.9999 O   0  0  0  0  0  0  0  0  0  0  0  0
    4.6181   17.5779   21.7351 S   0  0  0  0  0  0  0  0  0  0  0  0
    4.2029   17.7952   23.1044 O   0  0  0  0  0  0  0  0  0  0  0  0
    5.9705   17.1758   21.4160 O   0  0  0  0  0  0  0  0  0  0  0  0
    4.2566   19.0700   20.8544 C   0  0  0  0  0  0  0  0  0  0  0  0
    3.1387   19.1073   20.0149 C   0  0  0  0  0  0  0  0  0  0  0  0
    2.8586   20.2739   19.3155 C   0  0  0  0  0  0  0  0  0  0  0  0
    1.7858   20.3202   18.5162 F   0  0  0  0  0  0  0  0  0  0  0  0
    3.6681   21.3977   19.4373 C   0  0  0  0  0  0  0  0  0  0  0  0
    4.7861   21.3570   20.2713 C   0  0  0  0  0  0  0  0  0  0  0  0
    5.0973   20.1844   20.9666 C   0  0  0  0  0  0  0  0  0  0  0  0
    6.1514   20.1932   21.8374 O   0  0  0  0  0  0  0  0  0  0  0  0
    6.6780   21.5088   22.0076 C   0  0  0  0  0  0  0  0  0  0  0  0
    7.3788   21.5489   23.1701 F   0  0  0  0  0  0  0  0  0  0  0  0
    7.5769   21.7125   21.0123 F   0  0  0  0  0  0  0  0  0  0  0  0
 13 14  1  0  0  0
 14  3  1  0  0  0
  3  4  1  0  0  0
  4  5  2  0  0  0
  5  6  1  0  0  0
  6  7  1  0  0  0
  7  8  1  0  0  0
  8  9  1  0  0  0
  9 10  1  0  0  0
 10  1  1  0  0  0
  1 15  1  0  0  0
 15 16  2  0  0  0
 15 17  2  0  0  0
 15 18  1  0  0  0
 18 19  1  0  0  0
 19 20  2  0  0  0
 20 21  1  0  0  0
 20 22  1  0  0  0
 22 23  2  0  0  0
 23 24  1  0  0  0
 24 25  1  0  0  0
 25 26  1  0  0  0
 26 27  1  0  0  0
 26 28  1  0  0  0
 10 11  1  0  0  0
 11 12  1  0  0  0
 12  3  2  0  0  0
 11  6  2  0  0  0
 24 18  2  0  0  0
  1  2  1  0  0  0
M  END
> <minimizedAffinity>
-10.52015

$$$$
OCNT-2311873


 24 27  0  0  0  0  0  0  0  0999 V2000
    3.3243   14.8914   22.1579 O   0  0  0  0  0  0  0  0  0  0  0  0
    2.4964   15.4735   21.4523 C   0  0  0  0  0  0  0  0  0  0  0  0
    1.2205   14.9441   21.2429 N   0  0  0  0  0  0  0  0  0  0  0  0
    0.4241   15.2199   20.1091 C   0  0  0  0  0  0  0  0  0  0  0  0
    0.1494   14.2061   19.2662 N   0  0  0  0  0  0  0  0  0  0  0  0
   -0.5815   14.4830   18.1689 C   0  0  0  0  0  0  0  0  0  0  0  0
   -1.0510   15.7349   17.8690 C   0  0  0  0  0  0  0  0  0  0  0  0
   -0.7224   16.7081   18.7753 C   0  0  0  0  0  0  0  0  0  0  0  0
    0.0033   16.4736   19.8852 N   0  0  0  0  0  0  0  0  0  0  0  0
    2.8188   16.8126   20.9271 C   0  0  0  0  0  0  0  0  0  0  0  0
    2.0384   17.5199   20.0293 C   0  0  0  0  0  0  0  0  0  0  0  0
    2.7288   19.0519   19.7179 S   0  0  0  0  0  0  0  0  0  0  0  0
    3.9987   18.7166   20.8350 C   0  0  0  0  0  0  0  0  0  0  0  0
    3.9156   17.5312   21.4063 N   0  0  0  0  0  0  0  0  0  0  0  0
    5.0720   19.6833   21.1166 C   0  0  0  0  0  0  0  0  0  0  0  0
    6.1552   19.4435   21.9722 C   0  0  0  0  0  0  0  0  0  0  0  0
    7.1238   20.4281   22.1762 C   0  0  0  0  0  0  0  0  0  0  0  0
    6.9856   21.6368   21.5170 C   0  0  0  0  0  0  0  0  0  0  0  0
    5.9637   21.9167   20.6854 N   0  0  0  0  0  0  0  0  0  0  0  0
    5.0386   20.9374   20.5051 C   0  0  0  0  0  0  0  0  0  0  0  0
    0.7490   13.9112   22.1554 C   0  0  0  0  0  0  0  0  0  0  0  0
   -0.4782   14.3850   22.8853 C   0  0  0  0  0  0  0  0  0  0  0  0
   -0.4670   14.5600   24.3836 C   0  0  0  0  0  0  0  0  0  0  0  0
   -1.2545   13.4378   23.7650 C   0  0  0  0  0  0  0  0  0  0  0  0
  1  2  2  0  0  0
  2 10  1  0  0  0
 10 11  2  0  0  0
 11 12  1  0  0  0
 12 13  1  0  0  0
 13 15  1  0  0  0
 15 16  1  0  0  0
 16 17  2  0  0  0
 17 18  1  0  0  0
 18 19  2  0  0  0
 19 20  1  0  0  0
 13 14  2  0  0  0
  2  3  1  0  0  0
  3 21  1  0  0  0
 21 22  1  0  0  0
 22 23  1  0  0  0
 23 24  1  0  0  0
  3  4  1  0  0  0
  4  5  2  0  0  0
  5  6  1  0  0  0
  6  7  2  0  0  0
  7  8  1  0  0  0
  8  9  2  0  0  0
 14 10  1  0  0  0
 24 22  1  0  0  0
  9  4  1  0  0  0
 20 15  2  0  0  0
M  END
> <minimizedAffinity>
-8.62778

$$$$
OCNT-2311889


 25 27  0  0  0  0  0  0  0  0999 V2000
    3.2968   17.0480   21.8775 N   0  0  0  0  0  0  0  0  0  0  0  0
    4.6257   17.1438   21.5542 C   0  0  0  0  0  0  0  0  0  0  0  0
    5.3249   16.1650   21.3047 O   0  0  0  0  0  0  0  0  0  0  0  0
    2.7642   17.8992   22.0417 H   0  0  0  0  0  0  0  0  0  0  0  0
    5.1867   18.5331   21.5207 C   0  0  0  0  0  0  0  0  0  0  0  0
    6.3183   18.7886   22.2188 C   0  0  0  0  0  0  0  0  0  0  0  0
    6.9317   20.1110   22.2395 C   0  0  0  0  0  0  0  0  0  0  0  0
    6.3556   21.1049   21.5429 C   0  0  0  0  0  0  0  0  0  0  0  0
    5.1946   20.8354   20.8272 N   0  0  0  0  0  0  0  0  0  0  0  0
    4.4171   21.6435   20.0470 C   0  0  0  0  0  0  0  0  0  0  0  0
    3.4056   20.9613   19.5579 N   0  0  0  0  0  0  0  0  0  0  0  0
    3.5080   19.6687   20.0194 N   0  0  0  0  0  0  0  0  0  0  0  0
    4.5812   19.5931   20.7828 C   0  0  0  0  0  0  0  0  0  0  0  0
    3.5510   14.5992   21.8458 C   0  0  0  0  0  0  0  0  0  0  0  0
    2.5827   15.7846   21.8945 C   0  0  0  0  0  0  0  0  0  0  0  0
    1.5743   15.7520   20.7603 C   0  0  0  0  0  0  0  0  0  0  0  0
    0.8668   14.5731   20.4868 C   0  0  0  0  0  0  0  0  0  0  0  0
   -0.0714   14.5311   19.4546 C   0  0  0  0  0  0  0  0  0  0  0  0
   -0.3298   15.6703   18.6903 C   0  0  0  0  0  0  0  0  0  0  0  0
    0.3428   16.8602   18.9663 C   0  0  0  0  0  0  0  0  0  0  0  0
    1.2987   16.8920   19.9860 C   0  0  0  0  0  0  0  0  0  0  0  0
    0.1788   18.0353   18.2870 O   0  0  0  0  0  0  0  0  0  0  0  0
   -0.7112   17.9764   17.1847 C   0  0  0  0  0  0  0  0  0  0  0  0
   -1.8008   18.7213   17.5034 F   0  0  0  0  0  0  0  0  0  0  0  0
   -0.1343   18.5794   16.1150 F   0  0  0  0  0  0  0  0  0  0  0  0
 14 15  1  0  0  0
 15  1  1  0  0  0
  1  2  1  0  0  0
  2  3  2  0  0  0
  2  5  1  0  0  0
  5  6  2  0  0  0
  6  7  1  0  0  0
  7  8  2  0  0  0
  8  9  1  0  0  0
  9 10  1  0  0  0
 10 11  2  0  0  0
 11 12  1  0  0  0
 12 13  2  0  0  0
 15 16  1  0  0  0
 16 17  2  0  0  0
 17 18  1  0  0  0
 18 19  2  0  0  0
 19 20  1  0  0  0
 20 22  1  0  0  0
 22 23  1  0  0  0
 23 24  1  0  0  0
 23 25  1  0  0  0
 20 21  2  0  0  0
 13  5  1  0  0  0
 21 16  1  0  0  0
 13  9  1  0  0  0
  1  4  1  0  0  0
M  END
> <minimizedAffinity>
-11.17125

$$$$
OCNT-2311892


 21 23  0  0  0  0  0  0  0  0999 V2000
    2.5707   15.5083   21.4473 C   0  0  0  0  0  0  0  0  0  0  0  0
    3.7535   15.1653   21.9129 N   0  0  0  0  0  0  0  0  0  0  0  0
    4.5502   16.2858   21.8055 N   0  0  0  0  0  0  0  0  0  0  0  0
    3.8036   17.2414   21.2847 C   0  0  0  0  0  0  0  0  0  0  0  0
    2.5205   16.8162   21.0408 O   0  0  0  0  0  0  0  0  0  0  0  0
    4.3089   18.6688   20.9905 C   0  0  0  0  0  0  0  0  0  0  0  0
    5.2104   19.3885   21.7385 C   0  0  0  0  0  0  0  0  0  0  0  0
    5.3449   20.5848   21.0948 N   0  0  0  0  0  0  0  0  0  0  0  0
    6.1802   21.6941   21.4871 C   0  0  0  0  0  0  0  0  0  0  0  0
    4.5936   20.6837   19.9801 N   0  0  0  0  0  0  0  0  0  0  0  0
    3.9588   19.5078   19.9219 C   0  0  0  0  0  0  0  0  0  0  0  0
    0.9594   14.1189   22.7136 C   0  0  0  0  0  0  0  0  0  0  0  0
    1.3261   14.6883   21.3458 C   0  0  0  0  0  0  0  0  0  0  0  0
    0.2928   15.5635   20.8798 O   0  0  0  0  0  0  0  0  0  0  0  0
   -0.0863   15.5171   19.5681 C   0  0  0  0  0  0  0  0  0  0  0  0
   -0.4302   14.3761   18.8416 C   0  0  0  0  0  0  0  0  0  0  0  0
   -0.8052   14.4832   17.4977 C   0  0  0  0  0  0  0  0  0  0  0  0
   -0.8412   15.7296   16.8745 C   0  0  0  0  0  0  0  0  0  0  0  0
   -0.5027   16.8675   17.6007 C   0  0  0  0  0  0  0  0  0  0  0  0
   -0.5521   18.5627   16.7656 Br  0  0  0  0  0  0  0  0  0  0  0  0
   -0.1282   16.7656   18.9397 C   0  0  0  0  0  0  0  0  0  0  0  0
 12 13  1  0  0  0
 13 14  1  0  0  0
 14 15  1  0  0  0
 15 16  2  0  0  0
 16 17  1  0  0  0
 17 18  2  0  0  0
 18 19  1  0  0  0
 19 20  1  0  0  0
 19 21  2  0  0  0
 13  1  1  0  0  0
  1  2  2  0  0  0
  2  3  1  0  0  0
  3  4  2  0  0  0
  4  6  1  0  0  0
  6  7  2  0  0  0
  7  8  1  0  0  0
  8  9  1  0  0  0
  8 10  1  0  0  0
 10 11  2  0  0  0
  4  5  1  0  0  0
 21 15  1  0  0  0
  5  1  1  0  0  0
 11  6  1  0  0  0
M  END
> <minimizedAffinity>
-8.87874

$$$$
OCNT-2311897


 24 25  0  0  0  0  0  0  0  0999 V2000
    1.2793   19.7447   18.9388 C   0  0  0  0  0  0  0  0  0  0  0  0
    0.4531   19.7510   19.8398 O   0  0  0  0  0  0  0  0  0  0  0  0
    2.7740   19.6751   19.1256 C   0  0  0  0  0  0  0  0  0  0  0  0
    3.3382   21.0175   19.5848 C   0  0  0  0  0  0  0  0  0  0  0  0
    6.0393   19.5111   21.8102 C   0  0  0  0  0  0  0  0  0  0  0  0
    6.9118   20.5924   21.8317 C   0  0  0  0  0  0  0  0  0  0  0  0
    6.6880   21.7667   21.1905 N   0  0  0  0  0  0  0  0  0  0  0  0
    5.5348   21.8661   20.4947 C   0  0  0  0  0  0  0  0  0  0  0  0
    4.5917   20.8465   20.3983 C   0  0  0  0  0  0  0  0  0  0  0  0
    4.8646   19.6509   21.0724 C   0  0  0  0  0  0  0  0  0  0  0  0
    5.3419   17.2541   22.0157 C   0  0  0  0  0  0  0  0  0  0  0  0
    6.2013   18.3079   22.4350 O   0  0  0  0  0  0  0  0  0  0  0  0
    0.9937   19.7884   17.6062 O   0  0  0  0  0  0  0  0  0  0  0  0
    0.1165   18.7660   17.1120 C   0  0  0  0  0  0  0  0  0  0  0  0
    0.6415   17.3598   17.4288 C   0  0  0  0  0  0  0  0  0  0  0  0
   -0.2631   16.4103   18.2897 C   0  0  0  0  0  0  0  0  0  0  0  0
   -0.7905   15.2508   17.4147 C   0  0  0  0  0  0  0  0  0  0  0  0
   -1.4673   17.2201   18.8285 C   0  0  0  0  0  0  0  0  0  0  0  0
    0.5028   15.8079   19.4994 C   0  0  0  0  0  0  0  0  0  0  0  0
    0.1666   14.5272   19.9846 C   0  0  0  0  0  0  0  0  0  0  0  0
    0.8370   13.9517   21.0684 C   0  0  0  0  0  0  0  0  0  0  0  0
    1.8628   14.6431   21.6999 C   0  0  0  0  0  0  0  0  0  0  0  0
    2.2155   15.9077   21.2469 C   0  0  0  0  0  0  0  0  0  0  0  0
    1.5436   16.4829   20.1615 C   0  0  0  0  0  0  0  0  0  0  0  0
 11 12  1  0  0  0
 12  5  1  0  0  0
  5  6  1  0  0  0
  6  7  2  0  0  0
  7  8  1  0  0  0
  8  9  2  0  0  0
  9  4  1  0  0  0
  4  3  1  0  0  0
  3  1  1  0  0  0
  1  2  2  0  0  0
  1 13  1  0  0  0
 13 14  1  0  0  0
 14 15  1  0  0  0
 15 16  1  0  0  0
 16 17  1  0  0  0
 16 18  1  0  0  0
 16 19  1  0  0  0
 19 20  2  0  0  0
 20 21  1  0  0  0
 21 22  2  0  0  0
 22 23  1  0  0  0
 23 24  2  0  0  0
  9 10  1  0  0  0
 10  5  2  0  0  0
 24 19  1  0  0  0
M  END
> <minimizedAffinity>
-9.32591

$$$$
OCNT-2311901


 27 29  0  0  0  0  0  0  0  0999 V2000
    2.7863   17.1245   20.8217 N   0  0  0  0  0  0  0  0  0  0  0  0
    4.0460   16.9467   21.3733 C   0  0  0  0  0  0  0  0  0  0  0  0
    4.5089   15.8809   21.7550 O   0  0  0  0  0  0  0  0  0  0  0  0
    2.4071   18.0470   20.9899 H   0  0  0  0  0  0  0  0  0  0  0  0
    0.7869   16.0507   19.7220 C   0  0  0  0  0  0  0  0  0  0  0  0
   -0.0138   14.8901   19.6593 C   0  0  0  0  0  0  0  0  0  0  0  0
    0.1604   13.8259   20.5445 C   0  0  0  0  0  0  0  0  0  0  0  0
    1.1363   13.9043   21.5271 C   0  0  0  0  0  0  0  0  0  0  0  0
    1.9582   15.0291   21.5969 C   0  0  0  0  0  0  0  0  0  0  0  0
    1.8280   16.0876   20.6764 C   0  0  0  0  0  0  0  0  0  0  0  0
   -1.9448   18.9274   16.7882 C   0  0  0  0  0  0  0  0  0  0  0  0
   -0.7898   18.5007   17.6054 C   0  0  0  0  0  0  0  0  0  0  0  0
    0.3876   19.1624   17.8636 C   0  0  0  0  0  0  0  0  0  0  0  0
    1.0989   18.3181   18.6677 N   0  0  0  0  0  0  0  0  0  0  0  0
    0.3689   17.1676   18.8588 C   0  0  0  0  0  0  0  0  0  0  0  0
   -0.8006   17.2865   18.2494 N   0  0  0  0  0  0  0  0  0  0  0  0
    2.0128   18.4889   19.0571 H   0  0  0  0  0  0  0  0  0  0  0  0
    4.8154   18.1900   21.5101 C   0  0  0  0  0  0  0  0  0  0  0  0
    5.9806   18.4086   22.2298 C   0  0  0  0  0  0  0  0  0  0  0  0
    6.3457   19.7248   22.0872 N   0  0  0  0  0  0  0  0  0  0  0  0
    5.4333   20.3759   21.2948 C   0  0  0  0  0  0  0  0  0  0  0  0
    4.4755   19.4501   20.9294 C   0  0  0  0  0  0  0  0  0  0  0  0
    7.1590   20.1603   22.5099 H   0  0  0  0  0  0  0  0  0  0  0  0
    5.5758   21.8174   20.9756 C   0  0  0  0  0  0  0  0  0  0  0  0
    4.6912   22.2186   20.0326 F   0  0  0  0  0  0  0  0  0  0  0  0
    6.8170   22.1148   20.5234 F   0  0  0  0  0  0  0  0  0  0  0  0
    5.3602   22.5868   22.0748 F   0  0  0  0  0  0  0  0  0  0  0  0
 11 12  1  0  0  0
 12 13  2  0  0  0
 13 14  1  0  0  0
 14 15  1  0  0  0
 15  5  1  0  0  0
  5  6  2  0  0  0
  6  7  1  0  0  0
  7  8  2  0  0  0
  8  9  1  0  0  0
  9 10  2  0  0  0
 10  1  1  0  0  0
  1  2  1  0  0  0
  2  3  2  0  0  0
  2 18  1  0  0  0
 18 19  2  0  0  0
 19 20  1  0  0  0
 20 21  1  0  0  0
 21 24  1  0  0  0
 24 25  1  0  0  0
 24 26  1  0  0  0
 24 27  1  0  0  0
 21 22  2  0  0  0
 15 16  2  0  0  0
 16 12  1  0  0  0
 10  5  1  0  0  0
 22 18  1  0  0  0
 14 17  1  0  0  0
  1  4  1  0  0  0
 20 23  1  0  0  0
M  END
> <minimizedAffinity>
-12.30337

$$$$
OCNT-2311905


 25 28  0  0  0  0  0  0  0  0999 V2000
   -1.0690   17.2548   18.7932 C   0  0  0  0  0  0  0  0  0  0  0  0
   -0.1917   18.3189   19.5133 C   0  0  0  0  0  0  0  0  0  0  0  0
    0.8579   18.8461   18.6221 N   0  0  0  0  0  0  0  0  0  0  0  0
    0.3439   19.3401   17.3289 C   0  0  0  0  0  0  0  0  0  0  0  0
   -0.5652   18.2940   16.6501 C   0  0  0  0  0  0  0  0  0  0  0  0
   -1.6402   17.7697   17.5175 N   0  0  0  0  0  0  0  0  0  0  0  0
   -2.2585   18.5494   17.7461 H   0  0  0  0  0  0  0  0  0  0  0  0
    1.8902   19.5737   19.1614 C   0  0  0  0  0  0  0  0  0  0  0  0
    1.8696   20.8812   19.3343 N   0  0  0  0  0  0  0  0  0  0  0  0
    3.0350   21.3889   19.8673 N   0  0  0  0  0  0  0  0  0  0  0  0
    3.9405   20.4568   20.0910 C   0  0  0  0  0  0  0  0  0  0  0  0
    3.4039   18.8846   19.6422 S   0  0  0  0  0  0  0  0  0  0  0  0
    5.2883   20.6882   20.6394 C   0  0  0  0  0  0  0  0  0  0  0  0
    6.1105   21.7463   20.2495 C   0  0  0  0  0  0  0  0  0  0  0  0
    7.3725   21.8741   20.8295 C   0  0  0  0  0  0  0  0  0  0  0  0
    7.7847   20.9476   21.7781 C   0  0  0  0  0  0  0  0  0  0  0  0
    6.9156   19.9240   22.1088 C   0  0  0  0  0  0  0  0  0  0  0  0
    5.6889   19.7769   21.5640 N   0  0  0  0  0  0  0  0  0  0  0  0
   -0.3210   15.9156   18.5737 C   0  0  0  0  0  0  0  0  0  0  0  0
    1.8338   14.5170   22.0423 C   0  0  0  0  0  0  0  0  0  0  0  0
    0.6758   13.8613   21.6290 C   0  0  0  0  0  0  0  0  0  0  0  0
   -0.0243   14.3175   20.5116 C   0  0  0  0  0  0  0  0  0  0  0  0
    0.4299   15.4338   19.7954 C   0  0  0  0  0  0  0  0  0  0  0  0
    1.5934   16.0882   20.2217 C   0  0  0  0  0  0  0  0  0  0  0  0
    2.2920   15.6303   21.3398 C   0  0  0  0  0  0  0  0  0  0  0  0
 20 21  2  0  0  0
 21 22  1  0  0  0
 22 23  2  0  0  0
 23 19  1  0  0  0
 19  1  1  0  0  0
  1  2  1  0  0  0
  2  3  1  0  0  0
  3  8  1  0  0  0
  8  9  2  0  0  0
  9 10  1  0  0  0
 10 11  2  0  0  0
 11 13  1  0  0  0
 13 14  2  0  0  0
 14 15  1  0  0  0
 15 16  2  0  0  0
 16 17  1  0  0  0
 17 18  2  0  0  0
 11 12  1  0  0  0
  3  4  1  0  0  0
  4  5  1  0  0  0
  5  6  1  0  0  0
 23 24  1  0  0  0
 24 25  2  0  0  0
 25 20  1  0  0  0
  6  1  1  0  0  0
 12  8  1  0  0  0
 18 13  1  0  0  0
  6  7  1  0  0  0
M  END
> <minimizedAffinity>
-10.47223

$$$$
OCNT-2311907


 23 25  0  0  0  0  0  0  0  0999 V2000
    3.9148   15.4590   21.7715 C   0  0  0  0  0  0  0  0  0  0  0  0
    6.7361   19.6436   22.1022 C   0  0  0  0  0  0  0  0  0  0  0  0
    5.6404   18.7352   21.8635 N   0  0  0  0  0  0  0  0  0  0  0  0
    5.5491   17.3901   22.2352 C   0  0  0  0  0  0  0  0  0  0  0  0
    4.4648   16.8281   21.6512 C   0  0  0  0  0  0  0  0  0  0  0  0
    3.8613   17.8328   20.8978 N   0  0  0  0  0  0  0  0  0  0  0  0
    2.7763   17.9938   20.1143 N   0  0  0  0  0  0  0  0  0  0  0  0
    2.8813   19.2692   19.7051 C   0  0  0  0  0  0  0  0  0  0  0  0
    4.0066   19.9427   20.2383 C   0  0  0  0  0  0  0  0  0  0  0  0
    4.6020   18.9967   21.0179 C   0  0  0  0  0  0  0  0  0  0  0  0
    4.4151   21.2838   20.0255 C   0  0  0  0  0  0  0  0  0  0  0  0
    4.7524   22.3809   19.8532 N   0  0  0  0  0  0  0  0  0  0  0  0
    2.4645   15.4889   21.9667 N   0  0  0  0  0  0  0  0  0  0  0  0
    2.0897   16.3494   21.5695 H   0  0  0  0  0  0  0  0  0  0  0  0
    1.8242   14.3343   21.3297 C   0  0  0  0  0  0  0  0  0  0  0  0
    0.3130   14.5660   21.1992 C   0  0  0  0  0  0  0  0  0  0  0  0
   -0.0594   15.0515   19.8189 C   0  0  0  0  0  0  0  0  0  0  0  0
   -0.4343   14.1378   18.8236 C   0  0  0  0  0  0  0  0  0  0  0  0
   -0.7607   14.5812   17.5406 C   0  0  0  0  0  0  0  0  0  0  0  0
   -0.7118   15.9414   17.2375 C   0  0  0  0  0  0  0  0  0  0  0  0
   -0.3349   16.8529   18.2214 C   0  0  0  0  0  0  0  0  0  0  0  0
   -0.2627   18.6976   17.8119 Br  0  0  0  0  0  0  0  0  0  0  0  0
   -0.0076   16.4171   19.5060 C   0  0  0  0  0  0  0  0  0  0  0  0
  2  3  1  0  0  0
  3  4  1  0  0  0
  4  5  2  0  0  0
  5  1  1  0  0  0
  1 13  1  0  0  0
 13 15  1  0  0  0
 15 16  1  0  0  0
 16 17  1  0  0  0
 17 18  2  0  0  0
 18 19  1  0  0  0
 19 20  2  0  0  0
 20 21  1  0  0  0
 21 22  1  0  0  0
 21 23  2  0  0  0
  5  6  1  0  0  0
  6  7  1  0  0  0
  7  8  2  0  0  0
  8  9  1  0  0  0
  9 11  1  0  0  0
 11 12  3  0  0  0
  9 10  2  0  0  0
 10  3  1  0  0  0
 23 17  1  0  0  0
 10  6  1  0  0  0
 13 14  1  0  0  0
M  END
> <minimizedAffinity>
-9.32056

$$$$
OCNT-2311908


 23 25  0  0  0  0  0  0  0  0999 V2000
    1.3629   19.1520   19.4800 C   0  0  0  0  0  0  0  0  0  0  0  0
    2.3438   18.3099   20.1709 N   0  0  0  0  0  0  0  0  0  0  0  0
    2.0631   16.9746   20.4840 C   0  0  0  0  0  0  0  0  0  0  0  0
    2.5609   16.3059   21.3858 O   0  0  0  0  0  0  0  0  0  0  0  0
    3.5330   18.9244   20.5867 C   0  0  0  0  0  0  0  0  0  0  0  0
    3.9459   20.0696   20.0840 N   0  0  0  0  0  0  0  0  0  0  0  0
    5.1600   20.4329   20.6403 C   0  0  0  0  0  0  0  0  0  0  0  0
    5.8829   21.6094   20.3567 C   0  0  0  0  0  0  0  0  0  0  0  0
    7.1049   21.8455   20.9957 C   0  0  0  0  0  0  0  0  0  0  0  0
    7.6121   20.9254   21.9080 C   0  0  0  0  0  0  0  0  0  0  0  0
    6.9146   19.7500   22.2037 C   0  0  0  0  0  0  0  0  0  0  0  0
    5.6884   19.5252   21.5564 C   0  0  0  0  0  0  0  0  0  0  0  0
    4.6115   18.1958   21.6962 S   0  0  0  0  0  0  0  0  0  0  0  0
    1.0496   16.2710   19.6575 C   0  0  0  0  0  0  0  0  0  0  0  0
    0.6889   14.9505   19.9432 C   0  0  0  0  0  0  0  0  0  0  0  0
   -0.2868   14.3230   19.1707 C   0  0  0  0  0  0  0  0  0  0  0  0
   -0.9070   15.0118   18.1223 C   0  0  0  0  0  0  0  0  0  0  0  0
   -0.5580   16.3360   17.8429 C   0  0  0  0  0  0  0  0  0  0  0  0
    0.4116   16.9680   18.6260 C   0  0  0  0  0  0  0  0  0  0  0  0
   -1.0974   17.1199   16.8622 O   0  0  0  0  0  0  0  0  0  0  0  0
   -1.1560   18.5132   17.1160 C   0  0  0  0  0  0  0  0  0  0  0  0
   -0.2230   19.1462   16.3634 F   0  0  0  0  0  0  0  0  0  0  0  0
   -2.3656   18.9536   16.6872 F   0  0  0  0  0  0  0  0  0  0  0  0
  1  2  1  0  0  0
  2  3  1  0  0  0
  3  4  2  0  0  0
  3 14  1  0  0  0
 14 15  2  0  0  0
 15 16  1  0  0  0
 16 17  2  0  0  0
 17 18  1  0  0  0
 18 20  1  0  0  0
 20 21  1  0  0  0
 21 22  1  0  0  0
 21 23  1  0  0  0
 18 19  2  0  0  0
  2  5  1  0  0  0
  5  6  2  0  0  0
  6  7  1  0  0  0
  7  8  2  0  0  0
  8  9  1  0  0  0
  9 10  2  0  0  0
 10 11  1  0  0  0
 11 12  2  0  0  0
 12 13  1  0  0  0
 19 14  1  0  0  0
 13  5  1  0  0  0
 12  7  1  0  0  0
M  END
> <minimizedAffinity>
-11.16062

$$$$
OCNT-2311913


 27 29  0  0  0  0  0  0  0  0999 V2000
    1.7880   18.7646   19.5433 C   0  0  0  0  0  0  0  0  0  0  0  0
    1.4811   19.9339   19.7443 O   0  0  0  0  0  0  0  0  0  0  0  0
    2.9902   18.1626   19.8650 N   0  0  0  0  0  0  0  0  0  0  0  0
    3.0902   17.1981   19.5761 H   0  0  0  0  0  0  0  0  0  0  0  0
    4.1022   18.7289   20.5340 C   0  0  0  0  0  0  0  0  0  0  0  0
    4.5603   20.0253   20.2579 C   0  0  0  0  0  0  0  0  0  0  0  0
    5.6495   20.5046   20.9572 C   0  0  0  0  0  0  0  0  0  0  0  0
    6.2891   19.7527   21.9080 C   0  0  0  0  0  0  0  0  0  0  0  0
    5.8751   18.4771   22.2149 C   0  0  0  0  0  0  0  0  0  0  0  0
    4.7670   17.9466   21.5248 C   0  0  0  0  0  0  0  0  0  0  0  0
    4.3230   16.5503   21.8767 C   0  0  0  0  0  0  0  0  0  0  0  0
    7.3342   20.4088   22.4777 O   0  0  0  0  0  0  0  0  0  0  0  0
    7.2784   21.6669   21.7734 C   0  0  0  0  0  0  0  0  0  0  0  0
    6.2118   21.7346   20.8059 O   0  0  0  0  0  0  0  0  0  0  0  0
   -0.8965   17.7269   17.0998 C   0  0  0  0  0  0  0  0  0  0  0  0
   -1.0778   16.3796   17.4168 C   0  0  0  0  0  0  0  0  0  0  0  0
   -0.3506   15.7855   18.4487 C   0  0  0  0  0  0  0  0  0  0  0  0
    0.5620   16.5452   19.1844 C   0  0  0  0  0  0  0  0  0  0  0  0
    0.7913   17.8891   18.8480 C   0  0  0  0  0  0  0  0  0  0  0  0
    0.0391   18.4762   17.8134 C   0  0  0  0  0  0  0  0  0  0  0  0
   -2.7489   19.0545   16.4188 C   0  0  0  0  0  0  0  0  0  0  0  0
   -1.6785   18.1816   16.0750 O   0  0  0  0  0  0  0  0  0  0  0  0
    1.2732   15.9407   20.1874 O   0  0  0  0  0  0  0  0  0  0  0  0
    0.7161   14.6691   20.5304 C   0  0  0  0  0  0  0  0  0  0  0  0
   -0.2162   14.7846   21.4968 F   0  0  0  0  0  0  0  0  0  0  0  0
    0.1762   14.0770   19.4451 F   0  0  0  0  0  0  0  0  0  0  0  0
    1.7136   13.8827   20.9882 F   0  0  0  0  0  0  0  0  0  0  0  0
 21 22  1  0  0  0
 22 15  1  0  0  0
 15 16  1  0  0  0
 16 17  2  0  0  0
 17 18  1  0  0  0
 18 23  1  0  0  0
 23 24  1  0  0  0
 24 25  1  0  0  0
 24 26  1  0  0  0
 24 27  1  0  0  0
 18 19  2  0  0  0
 19  1  1  0  0  0
  1  2  2  0  0  0
  1  3  1  0  0  0
  3  5  1  0  0  0
  5  6  1  0  0  0
  6  7  2  0  0  0
  7  8  1  0  0  0
  8  9  2  0  0  0
  9 10  1  0  0  0
 10 11  1  0  0  0
  8 12  1  0  0  0
 12 13  1  0  0  0
 13 14  1  0  0  0
 19 20  1  0  0  0
 20 15  2  0  0  0
 10  5  2  0  0  0
 14  7  1  0  0  0
  3  4  1  0  0  0
M  END
> <minimizedAffinity>
-11.08855

$$$$
OCNT-2311916


 27 28  0  0  0  0  0  0  0  0999 V2000
    2.8130   15.7714   22.0187 C   0  0  0  0  0  0  0  0  0  0  0  0
    3.8641   14.6742   21.8895 C   0  0  0  0  0  0  0  0  0  0  0  0
    3.4373   17.0894   21.9414 N   0  0  0  0  0  0  0  0  0  0  0  0
    4.6458   17.2988   21.3305 C   0  0  0  0  0  0  0  0  0  0  0  0
    5.2484   16.4337   20.7048 O   0  0  0  0  0  0  0  0  0  0  0  0
    2.9864   17.8271   22.4780 H   0  0  0  0  0  0  0  0  0  0  0  0
    5.1907   18.6772   21.3896 C   0  0  0  0  0  0  0  0  0  0  0  0
    6.2664   18.8715   22.2739 C   0  0  0  0  0  0  0  0  0  0  0  0
    6.8616   20.1240   22.4017 C   0  0  0  0  0  0  0  0  0  0  0  0
    6.3799   21.1937   21.6524 C   0  0  0  0  0  0  0  0  0  0  0  0
    5.2960   21.0159   20.7839 C   0  0  0  0  0  0  0  0  0  0  0  0
    4.7585   22.4110   19.9097 Cl  0  0  0  0  0  0  0  0  0  0  0  0
    4.6853   19.7572   20.6479 C   0  0  0  0  0  0  0  0  0  0  0  0
    3.2990   19.5743   19.6186 Cl  0  0  0  0  0  0  0  0  0  0  0  0
    0.9332   14.5923   20.7988 N   0  0  0  0  0  0  0  0  0  0  0  0
    1.8028   15.6747   20.8530 C   0  0  0  0  0  0  0  0  0  0  0  0
    1.8260   16.5384   19.9659 O   0  0  0  0  0  0  0  0  0  0  0  0
    0.7509   13.6385   21.8906 C   0  0  0  0  0  0  0  0  0  0  0  0
   -0.8202   14.6044   23.8193 C   0  0  0  0  0  0  0  0  0  0  0  0
   -0.1140   14.1748   22.9480 C   0  0  0  0  0  0  0  0  0  0  0  0
   -0.0226   14.5283   19.6917 C   0  0  0  0  0  0  0  0  0  0  0  0
   -0.2809   15.8644   19.0358 C   0  0  0  0  0  0  0  0  0  0  0  0
   -0.5211   17.0056   19.8153 C   0  0  0  0  0  0  0  0  0  0  0  0
   -0.7705   18.2387   19.2115 C   0  0  0  0  0  0  0  0  0  0  0  0
   -0.7810   18.3457   17.8225 C   0  0  0  0  0  0  0  0  0  0  0  0
   -0.5423   17.2203   17.0362 C   0  0  0  0  0  0  0  0  0  0  0  0
   -0.2933   15.9854   17.6384 C   0  0  0  0  0  0  0  0  0  0  0  0
 19 20  3  0  0  0
 20 18  1  0  0  0
 18 15  1  0  0  0
 15 21  1  0  0  0
 21 22  1  0  0  0
 22 23  2  0  0  0
 23 24  1  0  0  0
 24 25  2  0  0  0
 25 26  1  0  0  0
 26 27  2  0  0  0
 15 16  1  0  0  0
 16 17  2  0  0  0
 16  1  1  0  0  0
  1  2  1  0  0  0
  1  3  1  0  0  0
  3  4  1  0  0  0
  4  5  2  0  0  0
  4  7  1  0  0  0
  7  8  2  0  0  0
  8  9  1  0  0  0
  9 10  2  0  0  0
 10 11  1  0  0  0
 11 12  1  0  0  0
 11 13  2  0  0  0
 13 14  1  0  0  0
 27 22  1  0  0  0
 13  7  1  0  0  0
  3  6  1  0  0  0
M  END
> <minimizedAffinity>
-9.31875

$$$$
OCNT-2311935


 27 30  0  0  0  0  0  0  0  0999 V2000
    1.1415   18.6009   19.1761 C   0  0  0  0  0  0  0  0  0  0  0  0
    0.4461   19.5403   19.5306 O   0  0  0  0  0  0  0  0  0  0  0  0
    2.5193   18.5094   19.1405 N   0  0  0  0  0  0  0  0  0  0  0  0
    2.9457   17.6440   18.8384 H   0  0  0  0  0  0  0  0  0  0  0  0
   -0.4424   18.6226   16.7340 C   0  0  0  0  0  0  0  0  0  0  0  0
   -0.3190   17.3910   17.5849 C   0  0  0  0  0  0  0  0  0  0  0  0
   -1.0320   16.3127   17.1766 N   0  0  0  0  0  0  0  0  0  0  0  0
   -0.9318   15.1819   17.9127 C   0  0  0  0  0  0  0  0  0  0  0  0
   -0.1533   15.0471   19.0633 C   0  0  0  0  0  0  0  0  0  0  0  0
   -0.0931   13.8378   19.7792 C   0  0  0  0  0  0  0  0  0  0  0  0
    0.7025   13.7249   20.9179 C   0  0  0  0  0  0  0  0  0  0  0  0
    1.4510   14.8138   21.3488 C   0  0  0  0  0  0  0  0  0  0  0  0
    1.3970   16.0201   20.6467 C   0  0  0  0  0  0  0  0  0  0  0  0
    0.5848   16.1681   19.4954 C   0  0  0  0  0  0  0  0  0  0  0  0
    0.4713   17.3602   18.7377 C   0  0  0  0  0  0  0  0  0  0  0  0
    3.3210   19.5622   19.5084 C   0  0  0  0  0  0  0  0  0  0  0  0
    4.5897   19.5696   19.8350 N   0  0  0  0  0  0  0  0  0  0  0  0
    4.8527   20.8845   20.1097 C   0  0  0  0  0  0  0  0  0  0  0  0
    3.8033   21.7060   19.9725 N   0  0  0  0  0  0  0  0  0  0  0  0
    2.8489   20.8446   19.5894 N   0  0  0  0  0  0  0  0  0  0  0  0
    1.9176   21.1931   19.4036 H   0  0  0  0  0  0  0  0  0  0  0  0
    6.1807   21.3061   20.5167 C   0  0  0  0  0  0  0  0  0  0  0  0
    7.2794   21.6027   19.7427 C   0  0  0  0  0  0  0  0  0  0  0  0
    8.2670   21.9428   20.6190 N   0  0  0  0  0  0  0  0  0  0  0  0
    9.6166   22.3356   20.2951 C   0  0  0  0  0  0  0  0  0  0  0  0
    7.8865   21.8891   21.9107 N   0  0  0  0  0  0  0  0  0  0  0  0
    6.6076   21.4977   21.8428 C   0  0  0  0  0  0  0  0  0  0  0  0
  5  6  1  0  0  0
  6  7  2  0  0  0
  7  8  1  0  0  0
  8  9  2  0  0  0
  9 10  1  0  0  0
 10 11  2  0  0  0
 11 12  1  0  0  0
 12 13  2  0  0  0
 13 14  1  0  0  0
 14 15  2  0  0  0
 15  1  1  0  0  0
  1  2  2  0  0  0
  1  3  1  0  0  0
  3 16  1  0  0  0
 16 17  2  0  0  0
 17 18  1  0  0  0
 18 22  1  0  0  0
 22 23  2  0  0  0
 23 24  1  0  0  0
 24 25  1  0  0  0
 24 26  1  0  0  0
 26 27  2  0  0  0
 18 19  2  0  0  0
 19 20  1  0  0  0
 15  6  1  0  0  0
 20 16  1  0  0  0
 14  9  1  0  0  0
 27 22  1  0  0  0
  3  4  1  0  0  0
 20 21  1  0  0  0
M  END
> <minimizedAffinity>
-6.54492

$$$$
OCNT-2311948


 23 25  0  0  0  0  0  0  0  0999 V2000
    3.1616   17.0079   21.1299 C   0  0  0  0  0  0  0  0  0  0  0  0
    2.0240   17.1140   20.3578 C   0  0  0  0  0  0  0  0  0  0  0  0
    1.3790   15.9250   20.5474 N   0  0  0  0  0  0  0  0  0  0  0  0
    2.0787   15.1217   21.3730 N   0  0  0  0  0  0  0  0  0  0  0  0
    3.1679   15.7795   21.7446 N   0  0  0  0  0  0  0  0  0  0  0  0
    6.2408   20.0116   21.5974 C   0  0  0  0  0  0  0  0  0  0  0  0
    5.1946   20.1390   20.6684 C   0  0  0  0  0  0  0  0  0  0  0  0
    4.1956   19.1621   20.5237 C   0  0  0  0  0  0  0  0  0  0  0  0
    4.2086   18.0002   21.2976 C   0  0  0  0  0  0  0  0  0  0  0  0
    5.2489   17.8418   22.2150 C   0  0  0  0  0  0  0  0  0  0  0  0
    6.2419   18.8266   22.3538 C   0  0  0  0  0  0  0  0  0  0  0  0
    7.3976   21.6393   23.0313 C   0  0  0  0  0  0  0  0  0  0  0  0
    7.2458   20.9764   21.7356 N   0  0  0  0  0  0  0  0  0  0  0  0
    7.6416   21.7675   20.5716 C   0  0  0  0  0  0  0  0  0  0  0  0
    0.1360   15.4214   19.9793 C   0  0  0  0  0  0  0  0  0  0  0  0
   -0.4046   16.2494   18.8326 C   0  0  0  0  0  0  0  0  0  0  0  0
   -0.4064   17.6532   18.9478 C   0  0  0  0  0  0  0  0  0  0  0  0
   -0.9163   18.4538   17.9242 C   0  0  0  0  0  0  0  0  0  0  0  0
   -1.4329   17.8687   16.7715 C   0  0  0  0  0  0  0  0  0  0  0  0
   -1.4391   16.4804   16.6385 C   0  0  0  0  0  0  0  0  0  0  0  0
   -0.9313   15.6650   17.6616 C   0  0  0  0  0  0  0  0  0  0  0  0
   -0.9611   14.2410   17.4750 C   0  0  0  0  0  0  0  0  0  0  0  0
   -0.9897   13.0891   17.3394 N   0  0  0  0  0  0  0  0  0  0  0  0
 12 13  1  0  0  0
 13 14  1  0  0  0
 13  6  1  0  0  0
  6  7  1  0  0  0
  7  8  2  0  0  0
  8  9  1  0  0  0
  9  1  1  0  0  0
  1  2  2  0  0  0
  2  3  1  0  0  0
  3 15  1  0  0  0
 15 16  1  0  0  0
 16 17  2  0  0  0
 17 18  1  0  0  0
 18 19  2  0  0  0
 19 20  1  0  0  0
 20 21  2  0  0  0
 21 22  1  0  0  0
 22 23  3  0  0  0
  3  4  1  0  0  0
  4  5  2  0  0  0
  9 10  2  0  0  0
 10 11  1  0  0  0
 11  6  2  0  0  0
  5  1  1  0  0  0
 21 16  1  0  0  0
M  END
> <minimizedAffinity>
-6.84467

$$$$
OCNT-2311956


 30 33  0  0  0  0  0  0  0  0999 V2000
    3.2669   15.8293   21.8142 C   0  0  0  0  0  0  0  0  0  0  0  0
    3.9765   14.9242   22.2351 O   0  0  0  0  0  0  0  0  0  0  0  0
    3.4578   17.1549   22.1398 N   0  0  0  0  0  0  0  0  0  0  0  0
    2.7673   17.8435   21.8754 H   0  0  0  0  0  0  0  0  0  0  0  0
   -0.0949   16.9258   18.1512 C   0  0  0  0  0  0  0  0  0  0  0  0
   -1.1125   16.2034   17.6638 N   0  0  0  0  0  0  0  0  0  0  0  0
   -1.0750   15.0685   18.3801 N   0  0  0  0  0  0  0  0  0  0  0  0
   -0.0689   15.0209   19.3076 C   0  0  0  0  0  0  0  0  0  0  0  0
    0.2962   14.0380   20.2325 C   0  0  0  0  0  0  0  0  0  0  0  0
    1.3946   14.3142   21.0567 C   0  0  0  0  0  0  0  0  0  0  0  0
    2.0968   15.5223   20.9467 C   0  0  0  0  0  0  0  0  0  0  0  0
    1.6949   16.5002   20.0212 C   0  0  0  0  0  0  0  0  0  0  0  0
    0.5959   16.2352   19.1848 C   0  0  0  0  0  0  0  0  0  0  0  0
   -1.7717   14.3587   18.1869 H   0  0  0  0  0  0  0  0  0  0  0  0
    0.1888   18.2878   17.6070 C   0  0  0  0  0  0  0  0  0  0  0  0
   -2.1633   18.8711   16.8183 C   0  0  0  0  0  0  0  0  0  0  0  0
   -0.7052   18.6751   16.4267 C   0  0  0  0  0  0  0  0  0  0  0  0
    4.5788   17.5900   22.9572 C   0  0  0  0  0  0  0  0  0  0  0  0
    5.8140   18.0029   22.1419 C   0  0  0  0  0  0  0  0  0  0  0  0
    5.8149   19.4320   21.8255 N   0  0  0  0  0  0  0  0  0  0  0  0
    6.8830   20.2009   22.2743 C   0  0  0  0  0  0  0  0  0  0  0  0
    7.8481   19.7431   22.8854 O   0  0  0  0  0  0  0  0  0  0  0  0
    6.7362   21.6962   22.0302 C   0  0  0  0  0  0  0  0  0  0  0  0
    6.0867   22.1183   20.8481 O   0  0  0  0  0  0  0  0  0  0  0  0
    5.0223   21.3298   20.5060 C   0  0  0  0  0  0  0  0  0  0  0  0
    4.1220   21.9115   19.6086 C   0  0  0  0  0  0  0  0  0  0  0  0
    3.0185   21.1933   19.1589 C   0  0  0  0  0  0  0  0  0  0  0  0
    2.8242   19.8878   19.5974 C   0  0  0  0  0  0  0  0  0  0  0  0
    3.7341   19.2983   20.4829 C   0  0  0  0  0  0  0  0  0  0  0  0
    4.8472   20.0108   20.9537 C   0  0  0  0  0  0  0  0  0  0  0  0
 16 17  1  0  0  0
 17 15  1  0  0  0
 15  5  1  0  0  0
  5  6  2  0  0  0
  6  7  1  0  0  0
  7  8  1  0  0  0
  8  9  2  0  0  0
  9 10  1  0  0  0
 10 11  2  0  0  0
 11  1  1  0  0  0
  1  2  2  0  0  0
  1  3  1  0  0  0
  3 18  1  0  0  0
 18 19  1  0  0  0
 19 20  1  0  0  0
 20 21  1  0  0  0
 21 22  2  0  0  0
 21 23  1  0  0  0
 23 24  1  0  0  0
 24 25  1  0  0  0
 25 26  2  0  0  0
 26 27  1  0  0  0
 27 28  2  0  0  0
 28 29  1  0  0  0
 29 30  2  0  0  0
 11 12  1  0  0  0
 12 13  2  0  0  0
 13  5  1  0  0  0
 13  8  1  0  0  0
 30 20  1  0  0  0
 30 25  1  0  0  0
  7 14  1  0  0  0
  3  4  1  0  0  0
M  END
> <minimizedAffinity>
-8.94217

$$$$
OCNT-2311967


 26 28  0  0  0  0  0  0  0  0999 V2000
    3.0068   15.7349   21.6749 C   0  0  0  0  0  0  0  0  0  0  0  0
    2.4952   16.7361   20.8458 C   0  0  0  0  0  0  0  0  0  0  0  0
    1.3353   16.5271   20.0911 C   0  0  0  0  0  0  0  0  0  0  0  0
    0.6770   15.3021   20.1544 C   0  0  0  0  0  0  0  0  0  0  0  0
    1.1805   14.3041   20.9918 C   0  0  0  0  0  0  0  0  0  0  0  0
    2.3412   14.5135   21.7460 C   0  0  0  0  0  0  0  0  0  0  0  0
    4.1409   16.0863   22.3506 O   0  0  0  0  0  0  0  0  0  0  0  0
    5.1430   16.8505   21.6662 C   0  0  0  0  0  0  0  0  0  0  0  0
    4.7024   18.2423   23.6161 O   0  0  0  0  0  0  0  0  0  0  0  0
    5.5676   18.0842   22.4854 C   0  0  0  0  0  0  0  0  0  0  0  0
    4.8649   19.1310   23.9768 H   0  0  0  0  0  0  0  0  0  0  0  0
    5.5327   19.3544   21.6602 C   0  0  0  0  0  0  0  0  0  0  0  0
    6.5118   20.3484   21.8244 C   0  0  0  0  0  0  0  0  0  0  0  0
    6.4675   21.5214   21.0676 C   0  0  0  0  0  0  0  0  0  0  0  0
    5.4431   21.7100   20.1435 C   0  0  0  0  0  0  0  0  0  0  0  0
    5.3871   23.1546   19.2109 Cl  0  0  0  0  0  0  0  0  0  0  0  0
    4.4633   20.7350   19.9687 C   0  0  0  0  0  0  0  0  0  0  0  0
    4.5076   19.5606   20.7244 C   0  0  0  0  0  0  0  0  0  0  0  0
   -0.4661   14.9639   19.4858 O   0  0  0  0  0  0  0  0  0  0  0  0
   -0.4860   15.1185   18.0633 C   0  0  0  0  0  0  0  0  0  0  0  0
   -0.6422   16.5491   17.6198 C   0  0  0  0  0  0  0  0  0  0  0  0
    0.4257   17.3143   17.1427 C   0  0  0  0  0  0  0  0  0  0  0  0
    0.2179   18.6409   16.7759 C   0  0  0  0  0  0  0  0  0  0  0  0
   -1.0557   19.1669   16.9102 C   0  0  0  0  0  0  0  0  0  0  0  0
   -2.1093   18.4676   17.3824 N   0  0  0  0  0  0  0  0  0  0  0  0
   -1.8774   17.1815   17.7297 C   0  0  0  0  0  0  0  0  0  0  0  0
  9 10  1  0  0  0
 10  8  1  0  0  0
  8  7  1  0  0  0
  7  1  1  0  0  0
  1  2  1  0  0  0
  2  3  2  0  0  0
  3  4  1  0  0  0
  4 19  1  0  0  0
 19 20  1  0  0  0
 20 21  1  0  0  0
 21 22  1  0  0  0
 22 23  2  0  0  0
 23 24  1  0  0  0
 24 25  2  0  0  0
 25 26  1  0  0  0
  4  5  2  0  0  0
  5  6  1  0  0  0
 10 12  1  0  0  0
 12 13  1  0  0  0
 13 14  2  0  0  0
 14 15  1  0  0  0
 15 16  1  0  0  0
 15 17  2  0  0  0
 17 18  1  0  0  0
  6  1  2  0  0  0
 18 12  2  0  0  0
 26 21  2  0  0  0
  9 11  1  0  0  0
M  END
> <minimizedAffinity>
-8.64737

$$$$
OCNT-2311971


 23 25  0  0  0  0  0  0  0  0999 V2000
    2.8885   18.7207   19.6968 N   0  0  0  0  0  0  0  0  0  0  0  0
    1.6161   19.1479   19.3887 C   0  0  0  0  0  0  0  0  0  0  0  0
    1.1558   20.2765   19.4963 O   0  0  0  0  0  0  0  0  0  0  0  0
    3.1378   17.7586   19.4830 H   0  0  0  0  0  0  0  0  0  0  0  0
    0.7525   18.0863   18.8150 C   0  0  0  0  0  0  0  0  0  0  0  0
    0.0024   18.4416   17.6844 C   0  0  0  0  0  0  0  0  0  0  0  0
   -0.7975   17.4944   17.0550 C   0  0  0  0  0  0  0  0  0  0  0  0
   -0.8532   16.1949   17.5559 C   0  0  0  0  0  0  0  0  0  0  0  0
   -0.1235   15.8316   18.7035 C   0  0  0  0  0  0  0  0  0  0  0  0
   -0.1806   14.5387   19.2303 C   0  0  0  0  0  0  0  0  0  0  0  0
    0.4778   14.1266   20.3369 N   0  0  0  0  0  0  0  0  0  0  0  0
    1.2241   15.0505   20.9693 C   0  0  0  0  0  0  0  0  0  0  0  0
    1.3577   16.3601   20.5356 C   0  0  0  0  0  0  0  0  0  0  0  0
    0.6879   16.7788   19.3649 C   0  0  0  0  0  0  0  0  0  0  0  0
    4.5691   18.9131   21.4069 C   0  0  0  0  0  0  0  0  0  0  0  0
    5.6227   19.5988   22.0216 C   0  0  0  0  0  0  0  0  0  0  0  0
    6.0571   20.8338   21.5197 C   0  0  0  0  0  0  0  0  0  0  0  0
    7.2094   21.5513   22.1599 C   0  0  0  0  0  0  0  0  0  0  0  0
    5.4416   21.3627   20.3812 C   0  0  0  0  0  0  0  0  0  0  0  0
    4.3892   20.6847   19.7610 C   0  0  0  0  0  0  0  0  0  0  0  0
    3.9470   19.4620   20.2656 C   0  0  0  0  0  0  0  0  0  0  0  0
    4.8615   16.5515   21.6015 C   0  0  0  0  0  0  0  0  0  0  0  0
    4.0611   17.7049   21.8294 O   0  0  0  0  0  0  0  0  0  0  0  0
 22 23  1  0  0  0
 23 15  1  0  0  0
 15 16  1  0  0  0
 16 17  2  0  0  0
 17 18  1  0  0  0
 17 19  1  0  0  0
 19 20  2  0  0  0
 20 21  1  0  0  0
 21  1  1  0  0  0
  1  2  1  0  0  0
  2  3  2  0  0  0
  2  5  1  0  0  0
  5  6  2  0  0  0
  6  7  1  0  0  0
  7  8  2  0  0  0
  8  9  1  0  0  0
  9 10  2  0  0  0
 10 11  1  0  0  0
 11 12  2  0  0  0
 12 13  1  0  0  0
 13 14  2  0  0  0
 21 15  2  0  0  0
 14  5  1  0  0  0
 14  9  1  0  0  0
  1  4  1  0  0  0
M  END
> <minimizedAffinity>
-11.53167

$$$$
OCNT-2311975


 24 26  0  0  0  0  0  0  0  0999 V2000
    3.1728   16.4823   21.9310 O   0  0  0  0  0  0  0  0  0  0  0  0
    4.3585   16.9315   21.4447 C   0  0  0  0  0  0  0  0  0  0  0  0
    5.4227   16.3412   21.5027 O   0  0  0  0  0  0  0  0  0  0  0  0
    4.1655   18.2734   20.8543 C   0  0  0  0  0  0  0  0  0  0  0  0
    3.0938   18.4642   19.9858 C   0  0  0  0  0  0  0  0  0  0  0  0
    2.8166   19.6319   19.3652 N   0  0  0  0  0  0  0  0  0  0  0  0
    3.6566   20.6586   19.6222 C   0  0  0  0  0  0  0  0  0  0  0  0
    4.7648   20.5887   20.4706 C   0  0  0  0  0  0  0  0  0  0  0  0
    5.5886   21.7080   20.6872 C   0  0  0  0  0  0  0  0  0  0  0  0
    6.6872   21.6288   21.5400 C   0  0  0  0  0  0  0  0  0  0  0  0
    6.9731   20.4327   22.1854 C   0  0  0  0  0  0  0  0  0  0  0  0
    6.1617   19.3138   21.9778 C   0  0  0  0  0  0  0  0  0  0  0  0
    5.0397   19.3586   21.1132 C   0  0  0  0  0  0  0  0  0  0  0  0
    3.0010   15.0604   21.8391 C   0  0  0  0  0  0  0  0  0  0  0  0
    1.5206   14.7335   22.0088 C   0  0  0  0  0  0  0  0  0  0  0  0
    0.9845   14.1122   20.8430 O   0  0  0  0  0  0  0  0  0  0  0  0
   -0.6351   16.7633   18.0515 C   0  0  0  0  0  0  0  0  0  0  0  0
   -0.8117   15.3914   17.8524 C   0  0  0  0  0  0  0  0  0  0  0  0
   -0.2857   14.4621   18.7593 C   0  0  0  0  0  0  0  0  0  0  0  0
    0.4150   14.8986   19.8822 C   0  0  0  0  0  0  0  0  0  0  0  0
    0.5799   16.2707   20.0873 C   0  0  0  0  0  0  0  0  0  0  0  0
    0.0552   17.1992   19.1832 C   0  0  0  0  0  0  0  0  0  0  0  0
   -0.0508   19.1851   16.8728 C   0  0  0  0  0  0  0  0  0  0  0  0
   -1.3351   17.9057   16.8755 S   0  0  0  0  0  0  0  0  0  0  0  0
 23 24  1  0  0  0
 24 17  1  0  0  0
 17 18  1  0  0  0
 18 19  2  0  0  0
 19 20  1  0  0  0
 20 16  1  0  0  0
 16 15  1  0  0  0
 15 14  1  0  0  0
 14  1  1  0  0  0
  1  2  1  0  0  0
  2  3  2  0  0  0
  2  4  1  0  0  0
  4  5  1  0  0  0
  5  6  2  0  0  0
  6  7  1  0  0  0
  7  8  2  0  0  0
  8  9  1  0  0  0
  9 10  2  0  0  0
 10 11  1  0  0  0
 11 12  2  0  0  0
 12 13  1  0  0  0
 20 21  2  0  0  0
 21 22  1  0  0  0
 22 17  2  0  0  0
 13  4  2  0  0  0
 13  8  1  0  0  0
M  END
> <minimizedAffinity>
-10.13659

$$$$
OCNT-2311984


 26 28  0  0  0  0  0  0  0  0999 V2000
    2.6561   15.4222   21.9108 C   0  0  0  0  0  0  0  0  0  0  0  0
    3.3160   14.4013   22.0737 O   0  0  0  0  0  0  0  0  0  0  0  0
    1.2823   15.4936   22.0570 N   0  0  0  0  0  0  0  0  0  0  0  0
    0.7927   16.3203   21.7528 H   0  0  0  0  0  0  0  0  0  0  0  0
    6.8711   19.3193   22.3744 C   0  0  0  0  0  0  0  0  0  0  0  0
    5.7044   19.4545   21.4325 C   0  0  0  0  0  0  0  0  0  0  0  0
    5.5859   20.5819   20.5880 C   0  0  0  0  0  0  0  0  0  0  0  0
    6.7765   21.8409   20.6037 Cl  0  0  0  0  0  0  0  0  0  0  0  0
    4.5118   20.7352   19.7089 C   0  0  0  0  0  0  0  0  0  0  0  0
    3.5053   19.7735   19.6280 C   0  0  0  0  0  0  0  0  0  0  0  0
    3.6220   18.6557   20.4570 C   0  0  0  0  0  0  0  0  0  0  0  0
    4.6803   18.4750   21.3464 C   0  0  0  0  0  0  0  0  0  0  0  0
    4.4349   17.2381   22.0106 C   0  0  0  0  0  0  0  0  0  0  0  0
    3.2729   16.6747   21.5100 C   0  0  0  0  0  0  0  0  0  0  0  0
    2.7824   17.5724   20.5899 N   0  0  0  0  0  0  0  0  0  0  0  0
    1.9025   17.4838   20.1027 H   0  0  0  0  0  0  0  0  0  0  0  0
    0.4927   14.4381   22.4733 C   0  0  0  0  0  0  0  0  0  0  0  0
   -0.2929   14.4706   23.6019 C   0  0  0  0  0  0  0  0  0  0  0  0
   -0.9071   13.2510   23.6715 N   0  0  0  0  0  0  0  0  0  0  0  0
   -0.5699   12.4244   22.6655 N   0  0  0  0  0  0  0  0  0  0  0  0
    0.2815   13.1506   21.9327 C   0  0  0  0  0  0  0  0  0  0  0  0
   -1.8466   12.8049   24.6860 C   0  0  0  0  0  0  0  0  0  0  0  0
   -2.8357   11.7783   24.1225 C   0  0  0  0  0  0  0  0  0  0  0  0
   -4.2529   12.1574   24.3183 N   0  0  0  0  0  0  0  0  0  0  0  0
   -4.8403   11.3423   25.3874 C   0  0  0  0  0  0  0  0  0  0  0  0
   -5.0329   11.9828   23.0889 C   0  0  0  0  0  0  0  0  0  0  0  0
  5  6  1  0  0  0
  6  7  1  0  0  0
  7  8  1  0  0  0
  7  9  2  0  0  0
  9 10  1  0  0  0
 10 11  2  0  0  0
 11 12  1  0  0  0
 12 13  1  0  0  0
 13 14  2  0  0  0
 14  1  1  0  0  0
  1  2  2  0  0  0
  1  3  1  0  0  0
  3 17  1  0  0  0
 17 18  2  0  0  0
 18 19  1  0  0  0
 19 22  1  0  0  0
 22 23  1  0  0  0
 23 24  1  0  0  0
 24 25  1  0  0  0
 24 26  1  0  0  0
 19 20  1  0  0  0
 20 21  2  0  0  0
 14 15  1  0  0  0
 12  6  2  0  0  0
 21 17  1  0  0  0
 15 11  1  0  0  0
  3  4  1  0  0  0
 15 16  1  0  0  0
M  END
> <minimizedAffinity>
-3.91642

$$$$
OCNT-2311985


 22 24  0  0  0  0  0  0  0  0999 V2000
    1.9949   15.4475   21.4997 C   0  0  0  0  0  0  0  0  0  0  0  0
    0.1712   16.9819   18.5092 C   0  0  0  0  0  0  0  0  0  0  0  0
   -0.5804   15.8888   18.0604 C   0  0  0  0  0  0  0  0  0  0  0  0
   -0.4957   14.6611   18.7195 C   0  0  0  0  0  0  0  0  0  0  0  0
    0.3384   14.5156   19.8288 C   0  0  0  0  0  0  0  0  0  0  0  0
    1.0991   15.5977   20.2944 C   0  0  0  0  0  0  0  0  0  0  0  0
    1.0075   16.8304   19.6256 C   0  0  0  0  0  0  0  0  0  0  0  0
    0.1254   18.3102   17.8385 C   0  0  0  0  0  0  0  0  0  0  0  0
    0.7060   19.2978   18.2597 O   0  0  0  0  0  0  0  0  0  0  0  0
   -1.9613   18.7731   16.9000 C   0  0  0  0  0  0  0  0  0  0  0  0
   -0.6414   18.2570   16.7207 O   0  0  0  0  0  0  0  0  0  0  0  0
    3.1229   16.3593   21.4481 N   0  0  0  0  0  0  0  0  0  0  0  0
    3.1127   17.7021   21.1968 C   0  0  0  0  0  0  0  0  0  0  0  0
    4.4350   18.0716   21.3116 C   0  0  0  0  0  0  0  0  0  0  0  0
    5.1780   16.9659   21.6427 N   0  0  0  0  0  0  0  0  0  0  0  0
    4.3626   15.9242   21.7307 N   0  0  0  0  0  0  0  0  0  0  0  0
    5.0000   19.3929   21.1320 C   0  0  0  0  0  0  0  0  0  0  0  0
    6.1908   19.8003   21.7416 C   0  0  0  0  0  0  0  0  0  0  0  0
    6.6793   21.0891   21.5248 C   0  0  0  0  0  0  0  0  0  0  0  0
    5.9597   21.9374   20.7005 C   0  0  0  0  0  0  0  0  0  0  0  0
    4.8081   21.5873   20.0930 N   0  0  0  0  0  0  0  0  0  0  0  0
    4.3562   20.3276   20.3237 C   0  0  0  0  0  0  0  0  0  0  0  0
 10 11  1  0  0  0
 11  8  1  0  0  0
  8  9  2  0  0  0
  8  2  1  0  0  0
  2  3  1  0  0  0
  3  4  2  0  0  0
  4  5  1  0  0  0
  5  6  2  0  0  0
  6  1  1  0  0  0
  1 12  1  0  0  0
 12 13  1  0  0  0
 13 14  2  0  0  0
 14 17  1  0  0  0
 17 18  1  0  0  0
 18 19  2  0  0  0
 19 20  1  0  0  0
 20 21  2  0  0  0
 21 22  1  0  0  0
 14 15  1  0  0  0
 15 16  2  0  0  0
  6  7  1  0  0  0
  7  2  2  0  0  0
 16 12  1  0  0  0
 22 17  2  0  0  0
M  END
> <minimizedAffinity>
-10.96150

$$$$
OCNT-2311998


 23 25  0  0  0  0  0  0  0  0999 V2000
    2.6119   14.6025   21.6362 C   0  0  0  0  0  0  0  0  0  0  0  0
    3.3833   13.7185   21.9976 O   0  0  0  0  0  0  0  0  0  0  0  0
    2.9925   15.9294   21.5510 N   0  0  0  0  0  0  0  0  0  0  0  0
    2.2807   16.6336   21.4147 H   0  0  0  0  0  0  0  0  0  0  0  0
    0.2422   14.3609   22.4173 C   0  0  0  0  0  0  0  0  0  0  0  0
    1.1633   14.3529   21.1946 C   0  0  0  0  0  0  0  0  0  0  0  0
    0.6817   15.3069   20.1109 C   0  0  0  0  0  0  0  0  0  0  0  0
   -0.1853   14.8444   19.1071 C   0  0  0  0  0  0  0  0  0  0  0  0
   -0.6462   15.7064   18.1085 C   0  0  0  0  0  0  0  0  0  0  0  0
   -0.2410   17.0384   18.1035 C   0  0  0  0  0  0  0  0  0  0  0  0
   -0.8629   18.2040   16.7514 Br  0  0  0  0  0  0  0  0  0  0  0  0
    0.6218   17.5159   19.0858 C   0  0  0  0  0  0  0  0  0  0  0  0
    1.0804   16.6533   20.0845 C   0  0  0  0  0  0  0  0  0  0  0  0
    4.2760   16.3802   22.0405 C   0  0  0  0  0  0  0  0  0  0  0  0
    4.5629   17.7818   21.5605 C   0  0  0  0  0  0  0  0  0  0  0  0
    3.8388   18.3126   20.4783 C   0  0  0  0  0  0  0  0  0  0  0  0
    4.0930   19.6013   19.9842 C   0  0  0  0  0  0  0  0  0  0  0  0
    5.1026   20.3671   20.5900 C   0  0  0  0  0  0  0  0  0  0  0  0
    5.6501   21.6628   20.3971 C   0  0  0  0  0  0  0  0  0  0  0  0
    6.6400   21.8111   21.3414 C   0  0  0  0  0  0  0  0  0  0  0  0
    6.7437   20.6930   22.1066 O   0  0  0  0  0  0  0  0  0  0  0  0
    5.8076   19.8142   21.6519 C   0  0  0  0  0  0  0  0  0  0  0  0
    5.5801   18.5393   22.1664 C   0  0  0  0  0  0  0  0  0  0  0  0
  5  6  1  0  0  0
  6  1  1  0  0  0
  1  2  2  0  0  0
  1  3  1  0  0  0
  3 14  1  0  0  0
 14 15  1  0  0  0
 15 16  2  0  0  0
 16 17  1  0  0  0
 17 18  2  0  0  0
 18 19  1  0  0  0
 19 20  2  0  0  0
 20 21  1  0  0  0
 21 22  1  0  0  0
 22 23  2  0  0  0
  6  7  1  0  0  0
  7  8  1  0  0  0
  8  9  2  0  0  0
  9 10  1  0  0  0
 10 11  1  0  0  0
 10 12  2  0  0  0
 12 13  1  0  0  0
 23 15  1  0  0  0
 13  7  2  0  0  0
 22 18  1  0  0  0
  3  4  1  0  0  0
M  END
> <minimizedAffinity>
-12.18178

$$$$
OCNT-2312004


 25 29  0  0  0  0  0  0  0  0999 V2000
    1.5530   19.5065   19.9541 N   0  0  0  0  0  0  0  0  0  0  0  0
    1.0949   20.3049   20.3879 H   0  0  0  0  0  0  0  0  0  0  0  0
    0.7887   18.7734   19.0021 C   0  0  0  0  0  0  0  0  0  0  0  0
    0.1909   19.4267   17.9208 C   0  0  0  0  0  0  0  0  0  0  0  0
   -0.6126   18.7206   17.0105 C   0  0  0  0  0  0  0  0  0  0  0  0
   -0.8347   17.3527   17.1725 C   0  0  0  0  0  0  0  0  0  0  0  0
   -0.2329   16.7160   18.2448 C   0  0  0  0  0  0  0  0  0  0  0  0
    0.5730   17.4131   19.1498 C   0  0  0  0  0  0  0  0  0  0  0  0
    1.0373   16.4646   20.2085 C   0  0  0  0  0  0  0  0  0  0  0  0
    0.7039   15.1222   19.6933 N   0  0  0  0  0  0  0  0  0  0  0  0
   -0.3458   15.2846   18.6712 C   0  0  0  0  0  0  0  0  0  0  0  0
    0.5596   14.0930   20.7234 C   0  0  0  0  0  0  0  0  0  0  0  0
    1.7126   13.6654   21.5889 C   0  0  0  0  0  0  0  0  0  0  0  0
    0.5523   14.4065   22.1932 C   0  0  0  0  0  0  0  0  0  0  0  0
    3.3387   21.3248   19.5682 O   0  0  0  0  0  0  0  0  0  0  0  0
    3.1560   19.8901   19.5509 S   0  0  0  0  0  0  0  0  0  0  0  0
    3.4459   19.1168   18.3612 O   0  0  0  0  0  0  0  0  0  0  0  0
    4.2083   19.1983   20.8204 C   0  0  0  0  0  0  0  0  0  0  0  0
    5.2053   19.7246   21.6212 C   0  0  0  0  0  0  0  0  0  0  0  0
    5.8391   18.7526   22.4438 C   0  0  0  0  0  0  0  0  0  0  0  0
    5.2849   17.5051   22.2731 C   0  0  0  0  0  0  0  0  0  0  0  0
    4.0274   17.5149   21.1166 S   0  0  0  0  0  0  0  0  0  0  0  0
    5.6436   21.2181   21.5991 C   0  0  0  0  0  0  0  0  0  0  0  0
    6.7755   21.6616   20.7060 C   0  0  0  0  0  0  0  0  0  0  0  0
    6.9808   21.5871   22.1879 C   0  0  0  0  0  0  0  0  0  0  0  0
 15 16  2  0  0  0
 16 17  2  0  0  0
 16  1  1  0  0  0
  1  3  1  0  0  0
  3  4  1  0  0  0
  4  5  2  0  0  0
  5  6  1  0  0  0
  6  7  2  0  0  0
  7  8  1  0  0  0
  8  9  1  0  0  0
  9 10  1  0  0  0
 10 12  1  0  0  0
 12 13  1  0  0  0
 13 14  1  0  0  0
 10 11  1  0  0  0
 16 18  1  0  0  0
 18 19  2  0  0  0
 19 23  1  0  0  0
 23 24  1  0  0  0
 24 25  1  0  0  0
 19 20  1  0  0  0
 20 21  2  0  0  0
 21 22  1  0  0  0
  8  3  2  0  0  0
 14 12  1  0  0  0
 22 18  1  0  0  0
 11  7  1  0  0  0
 25 23  1  0  0  0
  1  2  1  0  0  0
M  END
> <minimizedAffinity>
-10.24815

$$$$
OCNT-2312009


 21 24  0  0  0  0  0  0  0  0999 V2000
    3.4269   16.6748   21.4173 N   0  0  0  0  0  0  0  0  0  0  0  0
    3.9227   15.4977   21.9359 C   0  0  0  0  0  0  0  0  0  0  0  0
    2.9288   14.5575   21.8339 C   0  0  0  0  0  0  0  0  0  0  0  0
    1.8373   15.2394   21.2588 C   0  0  0  0  0  0  0  0  0  0  0  0
    2.1352   16.5219   21.0149 N   0  0  0  0  0  0  0  0  0  0  0  0
    6.1909   21.6486   20.6595 C   0  0  0  0  0  0  0  0  0  0  0  0
    5.4517   20.3592   20.8655 C   0  0  0  0  0  0  0  0  0  0  0  0
    5.7640   19.5398   21.9569 C   0  0  0  0  0  0  0  0  0  0  0  0
    5.0946   18.3277   22.1563 C   0  0  0  0  0  0  0  0  0  0  0  0
    4.1030   17.9178   21.2561 C   0  0  0  0  0  0  0  0  0  0  0  0
    3.7858   18.7400   20.1647 C   0  0  0  0  0  0  0  0  0  0  0  0
    4.4584   19.9493   19.9711 C   0  0  0  0  0  0  0  0  0  0  0  0
    0.4990   14.6921   20.8961 C   0  0  0  0  0  0  0  0  0  0  0  0
    0.0512   15.2241   19.6253 N   0  0  0  0  0  0  0  0  0  0  0  0
    0.1472   16.5081   19.1746 C   0  0  0  0  0  0  0  0  0  0  0  0
   -0.3831   16.4426   17.9108 C   0  0  0  0  0  0  0  0  0  0  0  0
   -0.7608   15.1593   17.6317 N   0  0  0  0  0  0  0  0  0  0  0  0
   -0.4812   14.4119   18.6904 N   0  0  0  0  0  0  0  0  0  0  0  0
   -0.5484   17.6066   16.9059 C   0  0  0  0  0  0  0  0  0  0  0  0
   -1.5978   18.6509   17.1924 C   0  0  0  0  0  0  0  0  0  0  0  0
   -0.1443   19.0169   17.2462 C   0  0  0  0  0  0  0  0  0  0  0  0
  6  7  1  0  0  0
  7  8  1  0  0  0
  8  9  2  0  0  0
  9 10  1  0  0  0
 10  1  1  0  0  0
  1  2  1  0  0  0
  2  3  2  0  0  0
  3  4  1  0  0  0
  4 13  1  0  0  0
 13 14  1  0  0  0
 14 15  1  0  0  0
 15 16  2  0  0  0
 16 19  1  0  0  0
 19 20  1  0  0  0
 20 21  1  0  0  0
 16 17  1  0  0  0
 17 18  2  0  0  0
  4  5  2  0  0  0
 10 11  2  0  0  0
 11 12  1  0  0  0
 12  7  2  0  0  0
  5  1  1  0  0  0
 18 14  1  0  0  0
 21 19  1  0  0  0
M  END
> <minimizedAffinity>
-10.84533

$$$$
OCNT-2312011


 22 24  0  0  0  0  0  0  0  0999 V2000
    2.0606   18.8595   20.0421 N   0  0  0  0  0  0  0  0  0  0  0  0
    3.2394   19.6246   20.2203 C   0  0  0  0  0  0  0  0  0  0  0  0
    3.4169   20.7943   19.5801 C   0  0  0  0  0  0  0  0  0  0  0  0
    4.6890   21.5116   19.8447 C   0  0  0  0  0  0  0  0  0  0  0  0
    5.6449   21.1218   20.6311 N   0  0  0  0  0  0  0  0  0  0  0  0
    5.4373   19.9329   21.2720 C   0  0  0  0  0  0  0  0  0  0  0  0
    6.2182   19.2344   22.1629 C   0  0  0  0  0  0  0  0  0  0  0  0
    5.4799   18.0858   22.4756 C   0  0  0  0  0  0  0  0  0  0  0  0
    4.3092   18.0309   21.8409 N   0  0  0  0  0  0  0  0  0  0  0  0
    4.2702   19.1752   21.0935 N   0  0  0  0  0  0  0  0  0  0  0  0
    0.8585   19.5659   19.5141 C   0  0  0  0  0  0  0  0  0  0  0  0
    0.5656   19.1996   18.0518 C   0  0  0  0  0  0  0  0  0  0  0  0
   -1.1099   18.4552   16.5349 C   0  0  0  0  0  0  0  0  0  0  0  0
   -0.8341   19.0537   17.7948 O   0  0  0  0  0  0  0  0  0  0  0  0
    2.2214   17.5232   19.3912 C   0  0  0  0  0  0  0  0  0  0  0  0
    1.6885   16.3540   20.1638 C   0  0  0  0  0  0  0  0  0  0  0  0
    2.2963   15.7434   21.2482 C   0  0  0  0  0  0  0  0  0  0  0  0
    1.3175   14.4524   21.7886 S   0  0  0  0  0  0  0  0  0  0  0  0
    0.1327   14.6480   20.6473 N   0  0  0  0  0  0  0  0  0  0  0  0
    0.4645   15.6760   19.8715 C   0  0  0  0  0  0  0  0  0  0  0  0
   -0.3479   16.0387   18.8466 O   0  0  0  0  0  0  0  0  0  0  0  0
   -0.6494   14.9954   17.9261 C   0  0  0  0  0  0  0  0  0  0  0  0
 13 14  1  0  0  0
 14 12  1  0  0  0
 12 11  1  0  0  0
 11  1  1  0  0  0
  1 15  1  0  0  0
 15 16  1  0  0  0
 16 17  2  0  0  0
 17 18  1  0  0  0
 18 19  1  0  0  0
 19 20  2  0  0  0
 20 21  1  0  0  0
 21 22  1  0  0  0
  1  2  1  0  0  0
  2  3  2  0  0  0
  3  4  1  0  0  0
  4  5  2  0  0  0
  5  6  1  0  0  0
  6  7  2  0  0  0
  7  8  1  0  0  0
  8  9  2  0  0  0
  9 10  1  0  0  0
 20 16  1  0  0  0
 10  2  1  0  0  0
 10  6  1  0  0  0
M  END
> <minimizedAffinity>
-7.36420

$$$$
OCNT-2312021


 24 27  0  0  0  0  0  0  0  0999 V2000
    3.3963   18.1235   20.5057 N   0  0  0  0  0  0  0  0  0  0  0  0
    4.3704   19.0942   20.7459 C   0  0  0  0  0  0  0  0  0  0  0  0
    4.2758   20.2783   20.0997 N   0  0  0  0  0  0  0  0  0  0  0  0
    5.2149   21.2198   20.3563 C   0  0  0  0  0  0  0  0  0  0  0  0
    6.2320   21.0388   21.2513 C   0  0  0  0  0  0  0  0  0  0  0  0
    7.1486   21.9775   21.4959 F   0  0  0  0  0  0  0  0  0  0  0  0
    6.2477   19.8281   21.8868 C   0  0  0  0  0  0  0  0  0  0  0  0
    5.3360   18.8550   21.6536 N   0  0  0  0  0  0  0  0  0  0  0  0
    3.5398   16.9439   21.3745 C   0  0  0  0  0  0  0  0  0  0  0  0
   -0.1374   14.2668   19.6304 C   0  0  0  0  0  0  0  0  0  0  0  0
    0.9400   14.6396   20.5167 N   0  0  0  0  0  0  0  0  0  0  0  0
    1.3202   14.0002   21.6622 C   0  0  0  0  0  0  0  0  0  0  0  0
    2.3449   14.7484   22.1895 C   0  0  0  0  0  0  0  0  0  0  0  0
    2.5317   15.8183   21.2740 C   0  0  0  0  0  0  0  0  0  0  0  0
    1.6848   15.7231   20.2338 N   0  0  0  0  0  0  0  0  0  0  0  0
    2.0421   18.6322   20.2780 C   0  0  0  0  0  0  0  0  0  0  0  0
    1.6718   18.4689   18.8330 C   0  0  0  0  0  0  0  0  0  0  0  0
    0.8186   19.5224   18.2246 C   0  0  0  0  0  0  0  0  0  0  0  0
    0.3377   20.5602   18.9891 F   0  0  0  0  0  0  0  0  0  0  0  0
    1.1254   20.0314   16.9849 F   0  0  0  0  0  0  0  0  0  0  0  0
    0.2737   18.1604   18.3655 C   0  0  0  0  0  0  0  0  0  0  0  0
   -0.9141   17.7669   19.1577 C   0  0  0  0  0  0  0  0  0  0  0  0
   -1.5265   17.3725   17.7968 C   0  0  0  0  0  0  0  0  0  0  0  0
   -0.0904   17.2533   17.2520 C   0  0  0  0  0  0  0  0  0  0  0  0
 10 11  1  0  0  0
 11 12  1  0  0  0
 12 13  2  0  0  0
 13 14  1  0  0  0
 14  9  1  0  0  0
  9  1  1  0  0  0
  1 16  1  0  0  0
 16 17  1  0  0  0
 17 18  1  0  0  0
 18 19  1  0  0  0
 18 20  1  0  0  0
 18 21  1  0  0  0
 21 22  1  0  0  0
 22 23  1  0  0  0
 23 24  1  0  0  0
  1  2  1  0  0  0
  2  3  2  0  0  0
  3  4  1  0  0  0
  4  5  2  0  0  0
  5  6  1  0  0  0
  5  7  1  0  0  0
  7  8  2  0  0  0
 14 15  2  0  0  0
 15 11  1  0  0  0
 21 17  1  0  0  0
  8  2  1  0  0  0
 24 21  1  0  0  0
M  END
> <minimizedAffinity>
-9.47562

$$$$
OCNT-2312027


 30 33  0  0  0  0  0  0  0  0999 V2000
    4.6550   17.0622   21.6079 C   0  0  0  0  0  0  0  0  0  0  0  0
    5.1393   16.8457   20.4948 O   0  0  0  0  0  0  0  0  0  0  0  0
    3.3535   16.7990   21.9576 N   0  0  0  0  0  0  0  0  0  0  0  0
    3.0302   17.0437   22.8843 H   0  0  0  0  0  0  0  0  0  0  0  0
    2.3218   16.2755   21.1767 C   0  0  0  0  0  0  0  0  0  0  0  0
    1.6238   16.9916   20.2094 C   0  0  0  0  0  0  0  0  0  0  0  0
    0.5973   16.3838   19.4702 C   0  0  0  0  0  0  0  0  0  0  0  0
    0.3300   15.0465   19.7728 C   0  0  0  0  0  0  0  0  0  0  0  0
    1.0698   14.4007   20.7501 C   0  0  0  0  0  0  0  0  0  0  0  0
    2.0575   14.9840   21.4542 N   0  0  0  0  0  0  0  0  0  0  0  0
   -0.1253   17.0692   18.5046 N   0  0  0  0  0  0  0  0  0  0  0  0
   -1.4535   16.6063   18.0642 C   0  0  0  0  0  0  0  0  0  0  0  0
   -1.7190   16.9694   16.5834 C   0  0  0  0  0  0  0  0  0  0  0  0
   -1.5758   18.3972   16.2345 N   0  0  0  0  0  0  0  0  0  0  0  0
   -2.8627   19.0867   16.2175 C   0  0  0  0  0  0  0  0  0  0  0  0
   -0.6300   19.0820   17.1430 C   0  0  0  0  0  0  0  0  0  0  0  0
    0.4742   18.1662   17.7209 C   0  0  0  0  0  0  0  0  0  0  0  0
    5.5462   17.6654   22.6922 C   0  0  0  0  0  0  0  0  0  0  0  0
    4.7601   20.3252   20.8458 C   0  0  0  0  0  0  0  0  0  0  0  0
    4.7134   21.4961   20.0772 C   0  0  0  0  0  0  0  0  0  0  0  0
    5.8310   22.3220   19.9756 C   0  0  0  0  0  0  0  0  0  0  0  0
    7.0255   22.0009   20.6264 C   0  0  0  0  0  0  0  0  0  0  0  0
    7.0644   20.8141   21.3683 C   0  0  0  0  0  0  0  0  0  0  0  0
    5.9674   19.9581   21.4843 C   0  0  0  0  0  0  0  0  0  0  0  0
    6.3769   18.8509   22.3037 C   0  0  0  0  0  0  0  0  0  0  0  0
    7.6935   19.0787   22.6567 C   0  0  0  0  0  0  0  0  0  0  0  0
    8.0947   20.2569   22.0888 N   0  0  0  0  0  0  0  0  0  0  0  0
    9.0171   20.6617   22.1756 H   0  0  0  0  0  0  0  0  0  0  0  0
    2.7654   19.6756   19.8530 C   0  0  0  0  0  0  0  0  0  0  0  0
    3.6613   19.5049   20.9517 O   0  0  0  0  0  0  0  0  0  0  0  0
 29 30  1  0  0  0
 30 19  1  0  0  0
 19 20  1  0  0  0
 20 21  2  0  0  0
 21 22  1  0  0  0
 22 23  2  0  0  0
 23 24  1  0  0  0
 24 25  1  0  0  0
 25 18  1  0  0  0
 18  1  1  0  0  0
  1  2  2  0  0  0
  1  3  1  0  0  0
  3  5  1  0  0  0
  5  6  2  0  0  0
  6  7  1  0  0  0
  7 11  1  0  0  0
 11 12  1  0  0  0
 12 13  1  0  0  0
 13 14  1  0  0  0
 14 15  1  0  0  0
 14 16  1  0  0  0
 16 17  1  0  0  0
  7  8  2  0  0  0
  8  9  1  0  0  0
  9 10  2  0  0  0
 25 26  2  0  0  0
 26 27  1  0  0  0
 24 19  2  0  0  0
 10  5  1  0  0  0
 27 23  1  0  0  0
 17 11  1  0  0  0
  3  4  1  0  0  0
 27 28  1  0  0  0
M  END
> <minimizedAffinity>
-6.38173

$$$$
OCNT-2312033


 27 29  0  0  0  0  0  0  0  0999 V2000
    0.7430   18.2770   19.6310 N   0  0  0  0  0  0  0  0  0  0  0  0
    2.1029   18.1104   19.4431 C   0  0  0  0  0  0  0  0  0  0  0  0
    2.6661   17.8514   18.3884 O   0  0  0  0  0  0  0  0  0  0  0  0
    2.7755   18.2718   20.6431 N   0  0  0  0  0  0  0  0  0  0  0  0
    0.4126   18.2683   20.5830 H   0  0  0  0  0  0  0  0  0  0  0  0
    2.3715   18.9830   21.2338 H   0  0  0  0  0  0  0  0  0  0  0  0
    4.2363   18.1959   20.6829 C   0  0  0  0  0  0  0  0  0  0  0  0
    4.7984   19.5826   20.9064 C   0  0  0  0  0  0  0  0  0  0  0  0
    4.8591   20.5004   19.8448 C   0  0  0  0  0  0  0  0  0  0  0  0
    5.3687   21.7839   20.0431 C   0  0  0  0  0  0  0  0  0  0  0  0
    5.8244   22.1642   21.3028 C   0  0  0  0  0  0  0  0  0  0  0  0
    5.7666   21.2612   22.3638 C   0  0  0  0  0  0  0  0  0  0  0  0
    5.2482   19.9796   22.1705 C   0  0  0  0  0  0  0  0  0  0  0  0
    5.2510   19.1686   23.2719 O   0  0  0  0  0  0  0  0  0  0  0  0
    4.5290   17.9419   23.1452 C   0  0  0  0  0  0  0  0  0  0  0  0
    4.7503   17.2659   21.7970 C   0  0  0  0  0  0  0  0  0  0  0  0
    4.1284   15.8719   21.7722 C   0  0  0  0  0  0  0  0  0  0  0  0
    2.7602   15.9109   22.1492 O   0  0  0  0  0  0  0  0  0  0  0  0
    2.2791   16.4617   21.5077 H   0  0  0  0  0  0  0  0  0  0  0  0
   -1.5824   18.6172   16.9308 C   0  0  0  0  0  0  0  0  0  0  0  0
   -1.6511   17.3018   17.1346 N   0  0  0  0  0  0  0  0  0  0  0  0
   -0.7820   17.1030   18.1457 N   0  0  0  0  0  0  0  0  0  0  0  0
   -0.5842   15.7617   18.6411 C   0  0  0  0  0  0  0  0  0  0  0  0
   -0.1724   18.2557   18.5916 C   0  0  0  0  0  0  0  0  0  0  0  0
   -0.6893   19.2600   17.8002 C   0  0  0  0  0  0  0  0  0  0  0  0
   -3.7207   19.2228   16.2319 C   0  0  0  0  0  0  0  0  0  0  0  0
   -2.3215   19.2245   15.9777 O   0  0  0  0  0  0  0  0  0  0  0  0
 26 27  1  0  0  0
 27 20  1  0  0  0
 20 21  2  0  0  0
 21 22  1  0  0  0
 22 23  1  0  0  0
 22 24  1  0  0  0
 24  1  1  0  0  0
  1  2  1  0  0  0
  2  3  2  0  0  0
  2  4  1  0  0  0
  4  7  1  0  0  0
  7  8  1  0  0  0
  8  9  2  0  0  0
  9 10  1  0  0  0
 10 11  2  0  0  0
 11 12  1  0  0  0
 12 13  2  0  0  0
 13 14  1  0  0  0
 14 15  1  0  0  0
 15 16  1  0  0  0
 16 17  1  0  0  0
 17 18  1  0  0  0
 24 25  2  0  0  0
 25 20  1  0  0  0
 16  7  1  0  0  0
 13  8  1  0  0  0
  1  5  1  0  0  0
  4  6  1  0  0  0
 18 19  1  0  0  0
M  END
> <minimizedAffinity>
-6.66171

$$$$
OCNT-2312041


 28 30  0  0  0  0  0  0  0  0999 V2000
    2.8124   18.6696   19.8953 N   0  0  0  0  0  0  0  0  0  0  0  0
    1.6963   17.8999   19.5747 C   0  0  0  0  0  0  0  0  0  0  0  0
    0.6966   18.3576   18.7489 C   0  0  0  0  0  0  0  0  0  0  0  0
   -0.3563   17.5028   18.5173 C   0  0  0  0  0  0  0  0  0  0  0  0
   -0.4606   16.2558   19.0232 N   0  0  0  0  0  0  0  0  0  0  0  0
    0.5618   15.8595   19.7906 C   0  0  0  0  0  0  0  0  0  0  0  0
    1.6207   16.6476   20.0685 N   0  0  0  0  0  0  0  0  0  0  0  0
   -1.4862   17.9604   17.6500 C   0  0  0  0  0  0  0  0  0  0  0  0
   -1.2266   19.0619   16.8795 N   0  0  0  0  0  0  0  0  0  0  0  0
   -2.5702   17.3898   17.6194 O   0  0  0  0  0  0  0  0  0  0  0  0
   -1.9283   19.3907   16.2295 H   0  0  0  0  0  0  0  0  0  0  0  0
   -0.2995   19.4679   16.8815 H   0  0  0  0  0  0  0  0  0  0  0  0
    0.5553   14.4695   20.3824 C   0  0  0  0  0  0  0  0  0  0  0  0
    0.2397   14.2917   21.8544 C   0  0  0  0  0  0  0  0  0  0  0  0
    1.6252   14.0045   21.3474 C   0  0  0  0  0  0  0  0  0  0  0  0
    2.7940   20.0791   19.4787 C   0  0  0  0  0  0  0  0  0  0  0  0
    4.2098   20.6505   19.3416 C   0  0  0  0  0  0  0  0  0  0  0  0
    4.3641   21.9953   20.0574 C   0  0  0  0  0  0  0  0  0  0  0  0
    7.3809   21.2371   22.4277 C   0  0  0  0  0  0  0  0  0  0  0  0
    6.4953   21.3614   21.2299 C   0  0  0  0  0  0  0  0  0  0  0  0
    5.2539   21.8722   21.2641 C   0  0  0  0  0  0  0  0  0  0  0  0
    4.1324   18.0475   20.0625 C   0  0  0  0  0  0  0  0  0  0  0  0
    4.7496   18.1040   21.4236 C   0  0  0  0  0  0  0  0  0  0  0  0
    6.0207   17.7219   21.8135 C   0  0  0  0  0  0  0  0  0  0  0  0
    6.1012   17.9581   23.1562 N   0  0  0  0  0  0  0  0  0  0  0  0
    4.9702   18.4613   23.6763 N   0  0  0  0  0  0  0  0  0  0  0  0
    4.1561   18.5621   22.6221 C   0  0  0  0  0  0  0  0  0  0  0  0
    6.8898   17.8000   23.7765 H   0  0  0  0  0  0  0  0  0  0  0  0
 19 20  1  0  0  0
 20 21  2  0  0  0
 21 18  1  0  0  0
 18 17  1  0  0  0
 17 16  1  0  0  0
 16  1  1  0  0  0
  1 22  1  0  0  0
 22 23  1  0  0  0
 23 24  2  0  0  0
 24 25  1  0  0  0
 25 26  1  0  0  0
 26 27  2  0  0  0
  1  2  1  0  0  0
  2  3  1  0  0  0
  3  4  2  0  0  0
  4  8  1  0  0  0
  8  9  1  0  0  0
  8 10  2  0  0  0
  4  5  1  0  0  0
  5  6  2  0  0  0
  6 13  1  0  0  0
 13 14  1  0  0  0
 14 15  1  0  0  0
  6  7  1  0  0  0
 27 23  1  0  0  0
  7  2  2  0  0  0
 15 13  1  0  0  0
 25 28  1  0  0  0
  9 11  1  0  0  0
  9 12  1  0  0  0
M  END
> <minimizedAffinity>
-8.72365

$$$$
OCNT-2312044


 22 24  0  0  0  0  0  0  0  0999 V2000
    0.5317   17.5461   19.0575 C   0  0  0  0  0  0  0  0  0  0  0  0
    0.0278   16.3300   19.4906 C   0  0  0  0  0  0  0  0  0  0  0  0
    0.8117   15.5598   20.3507 C   0  0  0  0  0  0  0  0  0  0  0  0
    2.0692   16.0514   20.7214 C   0  0  0  0  0  0  0  0  0  0  0  0
    2.5087   17.2893   20.2511 C   0  0  0  0  0  0  0  0  0  0  0  0
    1.7440   18.0279   19.4224 N   0  0  0  0  0  0  0  0  0  0  0  0
    3.7871   17.7506   20.6471 N   0  0  0  0  0  0  0  0  0  0  0  0
    3.9643   17.5653   22.0970 C   0  0  0  0  0  0  0  0  0  0  0  0
    5.3894   17.8568   22.5657 C   0  0  0  0  0  0  0  0  0  0  0  0
    5.7004   19.3535   22.6149 C   0  0  0  0  0  0  0  0  0  0  0  0
    6.1505   19.9683   21.3630 N   0  0  0  0  0  0  0  0  0  0  0  0
    5.5621   19.4200   20.1313 C   0  0  0  0  0  0  0  0  0  0  0  0
    4.0511   19.1185   20.1475 C   0  0  0  0  0  0  0  0  0  0  0  0
    6.0870   21.4399   21.4210 C   0  0  0  0  0  0  0  0  0  0  0  0
    7.0382   22.2509   20.5825 C   0  0  0  0  0  0  0  0  0  0  0  0
    5.5834   22.2003   20.2237 C   0  0  0  0  0  0  0  0  0  0  0  0
    0.3450   14.2148   20.8351 C   0  0  0  0  0  0  0  0  0  0  0  0
   -0.3585   14.2887   21.9983 F   0  0  0  0  0  0  0  0  0  0  0  0
    1.3690   13.3506   21.0729 F   0  0  0  0  0  0  0  0  0  0  0  0
   -0.4720   13.5991   19.9397 F   0  0  0  0  0  0  0  0  0  0  0  0
   -0.8504   19.0256   17.4283 N   0  0  0  0  0  0  0  0  0  0  0  0
   -0.2306   18.3824   18.1719 C   0  0  0  0  0  0  0  0  0  0  0  0
 21 22  3  0  0  0
 22  1  1  0  0  0
  1  2  1  0  0  0
  2  3  2  0  0  0
  3 17  1  0  0  0
 17 18  1  0  0  0
 17 19  1  0  0  0
 17 20  1  0  0  0
  3  4  1  0  0  0
  4  5  2  0  0  0
  5  7  1  0  0  0
  7  8  1  0  0  0
  8  9  1  0  0  0
  9 10  1  0  0  0
 10 11  1  0  0  0
 11 14  1  0  0  0
 14 15  1  0  0  0
 15 16  1  0  0  0
 11 12  1  0  0  0
 12 13  1  0  0  0
  5  6  1  0  0  0
  6  1  2  0  0  0
 13  7  1  0  0  0
 16 14  1  0  0  0
M  END
> <minimizedAffinity>
-8.79665

$$$$
OCNT-2312047


 23 25  0  0  0  0  0  0  0  0999 V2000
   -0.7530   18.5948   16.9240 C   0  0  0  0  0  0  0  0  0  0  0  0
   -0.3943   18.2670   18.3778 C   0  0  0  0  0  0  0  0  0  0  0  0
   -0.3194   16.7713   18.6615 C   0  0  0  0  0  0  0  0  0  0  0  0
   -0.7992   15.8143   17.7543 C   0  0  0  0  0  0  0  0  0  0  0  0
   -0.7035   14.4510   18.0375 C   0  0  0  0  0  0  0  0  0  0  0  0
   -0.1177   14.0211   19.2268 C   0  0  0  0  0  0  0  0  0  0  0  0
    0.3908   14.9510   20.1430 C   0  0  0  0  0  0  0  0  0  0  0  0
    0.2807   16.3219   19.8519 C   0  0  0  0  0  0  0  0  0  0  0  0
    1.0145   14.4920   21.4387 C   0  0  0  0  0  0  0  0  0  0  0  0
    1.9436   15.3712   21.9046 F   0  0  0  0  0  0  0  0  0  0  0  0
    1.6556   13.2951   21.3261 F   0  0  0  0  0  0  0  0  0  0  0  0
    0.1098   14.3344   22.4452 F   0  0  0  0  0  0  0  0  0  0  0  0
    0.8471   18.9826   18.8037 C   0  0  0  0  0  0  0  0  0  0  0  0
    2.0867   18.5452   18.8508 N   0  0  0  0  0  0  0  0  0  0  0  0
    2.7638   19.6349   19.3435 C   0  0  0  0  0  0  0  0  0  0  0  0
    1.9983   20.7144   19.5652 N   0  0  0  0  0  0  0  0  0  0  0  0
    0.7189   20.2787   19.2181 O   0  0  0  0  0  0  0  0  0  0  0  0
    4.2276   19.6400   19.5608 C   0  0  0  0  0  0  0  0  0  0  0  0
    4.5594   18.9701   20.8015 N   0  0  0  0  0  0  0  0  0  0  0  0
    5.1437   19.4992   21.9174 C   0  0  0  0  0  0  0  0  0  0  0  0
    5.2942   18.4195   22.7525 C   0  0  0  0  0  0  0  0  0  0  0  0
    4.8332   17.2945   22.1310 N   0  0  0  0  0  0  0  0  0  0  0  0
    4.3958   17.6392   20.9271 N   0  0  0  0  0  0  0  0  0  0  0  0
  1  2  1  0  0  0
  2  3  1  0  0  0
  3  4  2  0  0  0
  4  5  1  0  0  0
  5  6  2  0  0  0
  6  7  1  0  0  0
  7  9  1  0  0  0
  9 10  1  0  0  0
  9 11  1  0  0  0
  9 12  1  0  0  0
  7  8  2  0  0  0
  2 13  1  0  0  0
 13 14  2  0  0  0
 14 15  1  0  0  0
 15 18  1  0  0  0
 18 19  1  0  0  0
 19 20  1  0  0  0
 20 21  2  0  0  0
 21 22  1  0  0  0
 22 23  2  0  0  0
 15 16  2  0  0  0
 16 17  1  0  0  0
  8  3  1  0  0  0
 17 13  1  0  0  0
 23 19  1  0  0  0
M  END
> <minimizedAffinity>
-10.87000

$$$$
OCNT-2312058


 23 25  0  0  0  0  0  0  0  0999 V2000
    3.4678   16.8358   22.2768 N   0  0  0  0  0  0  0  0  0  0  0  0
    4.6580   17.0041   21.6055 C   0  0  0  0  0  0  0  0  0  0  0  0
    5.0614   16.1635   20.8049 O   0  0  0  0  0  0  0  0  0  0  0  0
    3.2141   17.4282   23.0573 H   0  0  0  0  0  0  0  0  0  0  0  0
    5.4068   18.2321   21.9229 C   0  0  0  0  0  0  0  0  0  0  0  0
    6.3653   18.3729   22.9136 C   0  0  0  0  0  0  0  0  0  0  0  0
    6.9810   19.9721   22.9424 S   0  0  0  0  0  0  0  0  0  0  0  0
    5.9324   20.3891   21.6481 C   0  0  0  0  0  0  0  0  0  0  0  0
    5.1705   19.4103   21.2106 N   0  0  0  0  0  0  0  0  0  0  0  0
    5.9224   21.7890   21.0910 C   0  0  0  0  0  0  0  0  0  0  0  0
    4.7349   21.9798   20.1470 C   0  0  0  0  0  0  0  0  0  0  0  0
    7.2375   22.0868   20.3702 C   0  0  0  0  0  0  0  0  0  0  0  0
    2.6966   15.6225   22.1196 C   0  0  0  0  0  0  0  0  0  0  0  0
   -1.0561   18.3985   16.3110 C   0  0  0  0  0  0  0  0  0  0  0  0
   -0.6540   17.3708   17.3284 C   0  0  0  0  0  0  0  0  0  0  0  0
   -1.1882   16.0811   17.2798 C   0  0  0  0  0  0  0  0  0  0  0  0
   -0.8041   15.1000   18.2008 C   0  0  0  0  0  0  0  0  0  0  0  0
    0.1469   15.4387   19.1760 C   0  0  0  0  0  0  0  0  0  0  0  0
    0.8106   14.4636   20.4298 S   0  0  0  0  0  0  0  0  0  0  0  0
    1.7779   15.7833   20.9451 C   0  0  0  0  0  0  0  0  0  0  0  0
    1.6407   16.8997   20.2546 N   0  0  0  0  0  0  0  0  0  0  0  0
    0.7112   16.7132   19.2430 C   0  0  0  0  0  0  0  0  0  0  0  0
    0.3069   17.6843   18.3032 C   0  0  0  0  0  0  0  0  0  0  0  0
 14 15  1  0  0  0
 15 16  2  0  0  0
 16 17  1  0  0  0
 17 18  2  0  0  0
 18 19  1  0  0  0
 19 20  1  0  0  0
 20 13  1  0  0  0
 13  1  1  0  0  0
  1  2  1  0  0  0
  2  3  2  0  0  0
  2  5  1  0  0  0
  5  6  2  0  0  0
  6  7  1  0  0  0
  7  8  1  0  0  0
  8 10  1  0  0  0
 10 11  1  0  0  0
 10 12  1  0  0  0
  8  9  2  0  0  0
 20 21  2  0  0  0
 21 22  1  0  0  0
 22 23  2  0  0  0
 23 15  1  0  0  0
 22 18  1  0  0  0
  9  5  1  0  0  0
  1  4  1  0  0  0
M  END
> <minimizedAffinity>
-7.34034

$$$$
OCNT-2312066


 27 29  0  0  0  0  0  0  0  0999 V2000
    1.2633   17.7823   19.3853 C   0  0  0  0  0  0  0  0  0  0  0  0
    0.1630   18.2647   19.1473 O   0  0  0  0  0  0  0  0  0  0  0  0
    1.5157   16.4292   19.3844 N   0  0  0  0  0  0  0  0  0  0  0  0
    2.3407   16.0792   19.8506 H   0  0  0  0  0  0  0  0  0  0  0  0
    7.5249   20.6140   22.7058 C   0  0  0  0  0  0  0  0  0  0  0  0
    6.3454   20.2501   21.9380 N   0  0  0  0  0  0  0  0  0  0  0  0
    5.7211   21.0340   20.9470 C   0  0  0  0  0  0  0  0  0  0  0  0
    6.0920   22.1264   20.5632 O   0  0  0  0  0  0  0  0  0  0  0  0
    4.5368   20.3143   20.4408 C   0  0  0  0  0  0  0  0  0  0  0  0
    3.6653   20.7548   19.4569 C   0  0  0  0  0  0  0  0  0  0  0  0
    2.5894   19.9265   19.1067 C   0  0  0  0  0  0  0  0  0  0  0  0
    2.4046   18.6727   19.7357 C   0  0  0  0  0  0  0  0  0  0  0  0
    3.2859   18.2486   20.7403 C   0  0  0  0  0  0  0  0  0  0  0  0
    4.3366   19.0886   21.0619 C   0  0  0  0  0  0  0  0  0  0  0  0
    5.5690   18.7949   22.2542 S   0  0  0  0  0  0  0  0  0  0  0  0
    4.9679   18.8539   23.5643 O   0  0  0  0  0  0  0  0  0  0  0  0
    6.3988   17.7066   21.7967 O   0  0  0  0  0  0  0  0  0  0  0  0
    0.4333   15.4973   19.1757 C   0  0  0  0  0  0  0  0  0  0  0  0
    0.0125   14.9341   20.4589 C   0  0  0  0  0  0  0  0  0  0  0  0
   -0.3339   14.4699   21.5114 C   0  0  0  0  0  0  0  0  0  0  0  0
   -0.7491   13.9157   22.7628 C   0  0  0  0  0  0  0  0  0  0  0  0
   -0.6898   14.6915   23.9256 C   0  0  0  0  0  0  0  0  0  0  0  0
   -1.0962   14.1548   25.1505 C   0  0  0  0  0  0  0  0  0  0  0  0
   -1.5620   12.8424   25.2115 C   0  0  0  0  0  0  0  0  0  0  0  0
   -1.6164   12.0795   24.0495 C   0  0  0  0  0  0  0  0  0  0  0  0
   -2.0649   10.8188   24.1109 F   0  0  0  0  0  0  0  0  0  0  0  0
   -1.2144   12.6022   22.8252 C   0  0  0  0  0  0  0  0  0  0  0  0
  5  6  1  0  0  0
  6  7  1  0  0  0
  7  8  2  0  0  0
  7  9  1  0  0  0
  9 10  1  0  0  0
 10 11  2  0  0  0
 11 12  1  0  0  0
 12  1  1  0  0  0
  1  2  2  0  0  0
  1  3  1  0  0  0
  3 18  1  0  0  0
 18 19  1  0  0  0
 19 20  3  0  0  0
 20 21  1  0  0  0
 21 22  2  0  0  0
 22 23  1  0  0  0
 23 24  2  0  0  0
 24 25  1  0  0  0
 25 26  1  0  0  0
 25 27  2  0  0  0
 12 13  2  0  0  0
 13 14  1  0  0  0
 14 15  1  0  0  0
 15 16  2  0  0  0
 15 17  2  0  0  0
 15  6  1  0  0  0
 14  9  2  0  0  0
 27 21  1  0  0  0
  3  4  1  0  0  0
M  END
> <minimizedAffinity>
-5.01258

$$$$
OCNT-2312071


 24 27  0  0  0  0  0  0  0  0999 V2000
    1.3517   17.0965   19.9478 C   0  0  0  0  0  0  0  0  0  0  0  0
    0.4474   16.8332   19.1616 O   0  0  0  0  0  0  0  0  0  0  0  0
    1.6746   16.3279   21.0475 N   0  0  0  0  0  0  0  0  0  0  0  0
    2.4713   16.6377   21.5981 H   0  0  0  0  0  0  0  0  0  0  0  0
    1.0124   19.7235   17.9856 C   0  0  0  0  0  0  0  0  0  0  0  0
    2.0296   19.3441   18.9819 C   0  0  0  0  0  0  0  0  0  0  0  0
    2.2096   18.2656   19.8182 C   0  0  0  0  0  0  0  0  0  0  0  0
    3.3716   18.4465   20.5549 N   0  0  0  0  0  0  0  0  0  0  0  0
    3.8516   19.6102   20.1459 C   0  0  0  0  0  0  0  0  0  0  0  0
    3.0691   20.2069   19.1815 O   0  0  0  0  0  0  0  0  0  0  0  0
    5.0614   20.2113   20.6391 C   0  0  0  0  0  0  0  0  0  0  0  0
    5.6375   21.3896   20.2008 C   0  0  0  0  0  0  0  0  0  0  0  0
    6.8394   21.7056   20.9001 C   0  0  0  0  0  0  0  0  0  0  0  0
    7.1430   20.7585   21.8517 C   0  0  0  0  0  0  0  0  0  0  0  0
    5.9849   19.5010   21.8967 S   0  0  0  0  0  0  0  0  0  0  0  0
    1.0082   15.1079   21.3624 C   0  0  0  0  0  0  0  0  0  0  0  0
    1.7774   13.8304   21.5373 C   0  0  0  0  0  0  0  0  0  0  0  0
    1.1424   14.4854   22.7332 C   0  0  0  0  0  0  0  0  0  0  0  0
   -0.1056   13.8622   23.3792 C   0  0  0  0  0  0  0  0  0  0  0  0
   -0.6728   12.6490   23.0883 C   0  0  0  0  0  0  0  0  0  0  0  0
   -1.7403   12.5442   23.9336 N   0  0  0  0  0  0  0  0  0  0  0  0
   -2.6716   11.4465   24.0230 C   0  0  0  0  0  0  0  0  0  0  0  0
   -1.8900   13.6067   24.7507 N   0  0  0  0  0  0  0  0  0  0  0  0
   -0.8778   14.4124   24.4121 C   0  0  0  0  0  0  0  0  0  0  0  0
  5  6  1  0  0  0
  6  7  2  0  0  0
  7  1  1  0  0  0
  1  2  2  0  0  0
  1  3  1  0  0  0
  3 16  1  0  0  0
 16 17  1  0  0  0
 17 18  1  0  0  0
 18 19  1  0  0  0
 19 20  2  0  0  0
 20 21  1  0  0  0
 21 22  1  0  0  0
 21 23  1  0  0  0
 23 24  2  0  0  0
  7  8  1  0  0  0
  8  9  2  0  0  0
  9 11  1  0  0  0
 11 12  2  0  0  0
 12 13  1  0  0  0
 13 14  2  0  0  0
 14 15  1  0  0  0
  9 10  1  0  0  0
 10  6  1  0  0  0
 18 16  1  0  0  0
 24 19  1  0  0  0
 15 11  1  0  0  0
  3  4  1  0  0  0
M  END
> <minimizedAffinity>
-7.63273

$$$$
OCNT-2312074


 27 29  0  0  0  0  0  0  0  0999 V2000
    0.8947   17.0417   19.8674 N   0  0  0  0  0  0  0  0  0  0  0  0
    1.5896   16.3319   20.8287 C   0  0  0  0  0  0  0  0  0  0  0  0
    1.0852   15.3665   21.3985 O   0  0  0  0  0  0  0  0  0  0  0  0
    1.4355   17.5805   19.2061 H   0  0  0  0  0  0  0  0  0  0  0  0
    2.9610   16.8123   21.0940 C   0  0  0  0  0  0  0  0  0  0  0  0
    3.2779   18.1076   20.9768 N   0  0  0  0  0  0  0  0  0  0  0  0
    4.6034   18.2189   21.2555 N   0  0  0  0  0  0  0  0  0  0  0  0
    5.1292   16.9825   21.6211 C   0  0  0  0  0  0  0  0  0  0  0  0
    6.5075   16.6986   22.0896 C   0  0  0  0  0  0  0  0  0  0  0  0
    4.0972   16.0730   21.4882 C   0  0  0  0  0  0  0  0  0  0  0  0
    5.2102   19.5122   21.1370 C   0  0  0  0  0  0  0  0  0  0  0  0
    6.3877   19.7744   21.8695 C   0  0  0  0  0  0  0  0  0  0  0  0
    7.0272   21.0165   21.7958 C   0  0  0  0  0  0  0  0  0  0  0  0
    6.4962   22.0194   20.9939 C   0  0  0  0  0  0  0  0  0  0  0  0
    5.3312   21.7697   20.2815 C   0  0  0  0  0  0  0  0  0  0  0  0
    4.8097   22.7396   19.5179 F   0  0  0  0  0  0  0  0  0  0  0  0
    4.6834   20.5354   20.3451 C   0  0  0  0  0  0  0  0  0  0  0  0
   -0.3662   16.5150   19.3665 C   0  0  0  0  0  0  0  0  0  0  0  0
   -0.8354   17.3952   18.2355 C   0  0  0  0  0  0  0  0  0  0  0  0
   -2.1418   17.6929   17.8899 C   0  0  0  0  0  0  0  0  0  0  0  0
   -2.2265   18.5619   16.7645 C   0  0  0  0  0  0  0  0  0  0  0  0
   -0.9837   18.9072   16.2853 C   0  0  0  0  0  0  0  0  0  0  0  0
    0.2753   18.1899   17.1899 S   0  0  0  0  0  0  0  0  0  0  0  0
   -0.1932   15.0682   18.8765 C   0  0  0  0  0  0  0  0  0  0  0  0
    0.1879   14.1355   19.5780 O   0  0  0  0  0  0  0  0  0  0  0  0
   -1.1905   13.7784   17.1947 C   0  0  0  0  0  0  0  0  0  0  0  0
   -0.4907   14.9719   17.5467 O   0  0  0  0  0  0  0  0  0  0  0  0
 26 27  1  0  0  0
 27 24  1  0  0  0
 24 25  2  0  0  0
 24 18  1  0  0  0
 18  1  1  0  0  0
  1  2  1  0  0  0
  2  3  2  0  0  0
  2  5  1  0  0  0
  5  6  2  0  0  0
  6  7  1  0  0  0
  7 11  1  0  0  0
 11 12  2  0  0  0
 12 13  1  0  0  0
 13 14  2  0  0  0
 14 15  1  0  0  0
 15 16  1  0  0  0
 15 17  2  0  0  0
  7  8  1  0  0  0
  8  9  1  0  0  0
  8 10  2  0  0  0
 18 19  1  0  0  0
 19 20  2  0  0  0
 20 21  1  0  0  0
 21 22  2  0  0  0
 22 23  1  0  0  0
 10  5  1  0  0  0
 23 19  1  0  0  0
 17 11  1  0  0  0
  1  4  1  0  0  0
M  END
> <minimizedAffinity>
-7.20238

$$$$
OCNT-2312078


 21 23  0  0  0  0  0  0  0  0999 V2000
    2.3286   17.3292   20.3551 C   0  0  0  0  0  0  0  0  0  0  0  0
    2.5856   16.2156   21.1544 C   0  0  0  0  0  0  0  0  0  0  0  0
    3.7574   16.1828   21.8850 C   0  0  0  0  0  0  0  0  0  0  0  0
    4.6733   17.1730   21.8857 N   0  0  0  0  0  0  0  0  0  0  0  0
    4.4429   18.2688   21.1316 C   0  0  0  0  0  0  0  0  0  0  0  0
    3.2874   18.3552   20.3511 C   0  0  0  0  0  0  0  0  0  0  0  0
   -1.2725   17.5831   17.9976 C   0  0  0  0  0  0  0  0  0  0  0  0
   -0.7600   16.3430   18.3757 C   0  0  0  0  0  0  0  0  0  0  0  0
    0.4122   16.2662   19.1422 C   0  0  0  0  0  0  0  0  0  0  0  0
    1.0986   17.4236   19.5484 C   0  0  0  0  0  0  0  0  0  0  0  0
    0.5584   18.6567   19.1558 C   0  0  0  0  0  0  0  0  0  0  0  0
    1.1651   19.8025   19.5038 F   0  0  0  0  0  0  0  0  0  0  0  0
   -0.6055   18.7407   18.3933 C   0  0  0  0  0  0  0  0  0  0  0  0
   -2.4539   18.9951   16.4921 C   0  0  0  0  0  0  0  0  0  0  0  0
   -2.4001   17.7963   17.2555 O   0  0  0  0  0  0  0  0  0  0  0  0
    5.3957   19.2810   21.1146 N   0  0  0  0  0  0  0  0  0  0  0  0
    5.0601   20.5764   20.5003 C   0  0  0  0  0  0  0  0  0  0  0  0
    5.3683   21.7357   21.4639 C   0  0  0  0  0  0  0  0  0  0  0  0
    6.7337   21.7775   21.9009 O   0  0  0  0  0  0  0  0  0  0  0  0
    7.3153   20.4736   22.0681 C   0  0  0  0  0  0  0  0  0  0  0  0
    6.2864   19.3528   22.2837 C   0  0  0  0  0  0  0  0  0  0  0  0
 14 15  1  0  0  0
 15  7  1  0  0  0
  7  8  1  0  0  0
  8  9  2  0  0  0
  9 10  1  0  0  0
 10  1  1  0  0  0
  1  2  2  0  0  0
  2  3  1  0  0  0
  3  4  2  0  0  0
  4  5  1  0  0  0
  5 16  1  0  0  0
 16 17  1  0  0  0
 17 18  1  0  0  0
 18 19  1  0  0  0
 19 20  1  0  0  0
 20 21  1  0  0  0
  5  6  2  0  0  0
 10 11  2  0  0  0
 11 12  1  0  0  0
 11 13  1  0  0  0
 13  7  2  0  0  0
  6  1  1  0  0  0
 21 16  1  0  0  0
M  END
> <minimizedAffinity>
-9.69529

$$$$
OCNT-2312083


 22 25  0  0  0  0  0  0  0  0999 V2000
    4.9077   18.2888   22.3483 N   0  0  0  0  0  0  0  0  0  0  0  0
    3.5894   17.9992   22.1463 C   0  0  0  0  0  0  0  0  0  0  0  0
    3.6137   16.7738   21.5175 C   0  0  0  0  0  0  0  0  0  0  0  0
    4.9152   16.3667   21.3767 N   0  0  0  0  0  0  0  0  0  0  0  0
    5.7018   17.2986   21.9001 N   0  0  0  0  0  0  0  0  0  0  0  0
    2.4558   16.0206   21.0662 C   0  0  0  0  0  0  0  0  0  0  0  0
    2.2229   14.7528   21.6280 C   0  0  0  0  0  0  0  0  0  0  0  0
    1.1198   13.9927   21.2482 C   0  0  0  0  0  0  0  0  0  0  0  0
    0.2284   14.4928   20.3060 C   0  0  0  0  0  0  0  0  0  0  0  0
    0.4262   15.7589   19.7335 C   0  0  0  0  0  0  0  0  0  0  0  0
    1.5586   16.5272   20.0941 C   0  0  0  0  0  0  0  0  0  0  0  0
    1.7739   17.8935   19.4710 C   0  0  0  0  0  0  0  0  0  0  0  0
    0.9603   18.1371   18.2012 C   0  0  0  0  0  0  0  0  0  0  0  0
   -0.4871   17.7264   18.4151 C   0  0  0  0  0  0  0  0  0  0  0  0
   -0.5661   16.2303   18.6960 C   0  0  0  0  0  0  0  0  0  0  0  0
    5.4776   19.4494   23.0086 C   0  0  0  0  0  0  0  0  0  0  0  0
    8.4670   22.0992   19.9630 C   0  0  0  0  0  0  0  0  0  0  0  0
    7.3336   21.5764   20.6861 N   0  0  0  0  0  0  0  0  0  0  0  0
    7.3384   20.5764   21.6133 C   0  0  0  0  0  0  0  0  0  0  0  0
    6.0276   20.4123   22.0184 C   0  0  0  0  0  0  0  0  0  0  0  0
    5.3190   21.3827   21.2744 C   0  0  0  0  0  0  0  0  0  0  0  0
    6.1101   22.0890   20.4655 N   0  0  0  0  0  0  0  0  0  0  0  0
 17 18  1  0  0  0
 18 19  1  0  0  0
 19 20  2  0  0  0
 20 16  1  0  0  0
 16  1  1  0  0  0
  1  2  1  0  0  0
  2  3  2  0  0  0
  3  6  1  0  0  0
  6  7  1  0  0  0
  7  8  2  0  0  0
  8  9  1  0  0  0
  9 10  2  0  0  0
 10 11  1  0  0  0
 11 12  1  0  0  0
 12 13  1  0  0  0
 13 14  1  0  0  0
 14 15  1  0  0  0
  3  4  1  0  0  0
  4  5  2  0  0  0
 20 21  1  0  0  0
 21 22  2  0  0  0
 22 18  1  0  0  0
  5  1  1  0  0  0
 11  6  2  0  0  0
 15 10  1  0  0  0
M  END
> <minimizedAffinity>
-10.06427

$$$$
OCNT-2312085


 21 23  0  0  0  0  0  0  0  0999 V2000
    0.3309   16.9139   18.6945 C   0  0  0  0  0  0  0  0  0  0  0  0
   -0.3417   15.6811   18.6461 C   0  0  0  0  0  0  0  0  0  0  0  0
   -0.0495   14.6837   19.5764 C   0  0  0  0  0  0  0  0  0  0  0  0
    0.9188   14.9147   20.5492 C   0  0  0  0  0  0  0  0  0  0  0  0
    1.2821   13.6875   21.6991 Cl  0  0  0  0  0  0  0  0  0  0  0  0
    1.6070   16.1287   20.5942 C   0  0  0  0  0  0  0  0  0  0  0  0
    1.3281   17.1435   19.6611 C   0  0  0  0  0  0  0  0  0  0  0  0
    2.1107   18.3625   19.6899 C   0  0  0  0  0  0  0  0  0  0  0  0
    3.4569   18.4670   19.9586 C   0  0  0  0  0  0  0  0  0  0  0  0
    3.6933   19.8117   19.9018 N   0  0  0  0  0  0  0  0  0  0  0  0
    2.5914   20.4854   19.5290 N   0  0  0  0  0  0  0  0  0  0  0  0
    1.6035   19.6061   19.4233 N   0  0  0  0  0  0  0  0  0  0  0  0
    5.0103   20.4498   20.0107 C   0  0  0  0  0  0  0  0  0  0  0  0
    4.9406   21.9404   20.4256 C   0  0  0  0  0  0  0  0  0  0  0  0
    6.1817   21.6755   21.2987 C   0  0  0  0  0  0  0  0  0  0  0  0
    5.7293   20.1969   21.3593 C   0  0  0  0  0  0  0  0  0  0  0  0
    4.9470   19.8836   22.4195 F   0  0  0  0  0  0  0  0  0  0  0  0
   -0.0827   17.9231   17.6954 C   0  0  0  0  0  0  0  0  0  0  0  0
    0.5384   18.1480   16.6700 O   0  0  0  0  0  0  0  0  0  0  0  0
   -2.1411   18.7126   16.9429 C   0  0  0  0  0  0  0  0  0  0  0  0
   -1.2853   18.4358   18.0508 O   0  0  0  0  0  0  0  0  0  0  0  0
 20 21  1  0  0  0
 21 18  1  0  0  0
 18 19  2  0  0  0
 18  1  1  0  0  0
  1  2  1  0  0  0
  2  3  2  0  0  0
  3  4  1  0  0  0
  4  5  1  0  0  0
  4  6  2  0  0  0
  6  7  1  0  0  0
  7  8  1  0  0  0
  8  9  2  0  0  0
  9 10  1  0  0  0
 10 13  1  0  0  0
 13 14  1  0  0  0
 14 15  1  0  0  0
 15 16  1  0  0  0
 16 17  1  0  0  0
 10 11  1  0  0  0
 11 12  2  0  0  0
  7  1  2  0  0  0
 12  8  1  0  0  0
 16 13  1  0  0  0
M  END
> <minimizedAffinity>
-10.97189

$$$$
OCNT-2312089


 27 31  0  0  0  0  0  0  0  0999 V2000
   -0.7740   18.1152   17.9153 C   0  0  0  0  0  0  0  0  0  0  0  0
    0.4819   18.3122   18.6894 C   0  0  0  0  0  0  0  0  0  0  0  0
    1.1389   17.4554   19.5517 C   0  0  0  0  0  0  0  0  0  0  0  0
    2.3022   17.9606   20.1140 N   0  0  0  0  0  0  0  0  0  0  0  0
    2.5308   19.1899   19.6921 C   0  0  0  0  0  0  0  0  0  0  0  0
    1.3508   19.7855   18.5865 S   0  0  0  0  0  0  0  0  0  0  0  0
    3.7008   19.9933   20.1085 C   0  0  0  0  0  0  0  0  0  0  0  0
    3.9058   21.3371   19.7055 C   0  0  0  0  0  0  0  0  0  0  0  0
    5.0289   22.0650   20.1234 C   0  0  0  0  0  0  0  0  0  0  0  0
    5.9341   21.4337   20.9445 C   0  0  0  0  0  0  0  0  0  0  0  0
    7.0732   21.9809   21.4444 O   0  0  0  0  0  0  0  0  0  0  0  0
    7.5902   20.8748   22.2134 C   0  0  0  0  0  0  0  0  0  0  0  0
    6.7572   19.6981   22.1559 O   0  0  0  0  0  0  0  0  0  0  0  0
    5.7531   20.1348   21.3490 C   0  0  0  0  0  0  0  0  0  0  0  0
    4.6572   19.3956   20.9530 C   0  0  0  0  0  0  0  0  0  0  0  0
    0.7421   16.0975   19.9227 C   0  0  0  0  0  0  0  0  0  0  0  0
    1.1051   15.3756   21.0360 C   0  0  0  0  0  0  0  0  0  0  0  0
    0.4651   14.1855   20.8738 N   0  0  0  0  0  0  0  0  0  0  0  0
   -0.2663   14.1705   19.7426 N   0  0  0  0  0  0  0  0  0  0  0  0
   -0.0935   15.3425   19.1440 N   0  0  0  0  0  0  0  0  0  0  0  0
    0.4884   13.0370   21.7522 C   0  0  0  0  0  0  0  0  0  0  0  0
    0.1292   13.3338   23.2195 C   0  0  0  0  0  0  0  0  0  0  0  0
   -0.8724   12.3492   23.8358 C   0  0  0  0  0  0  0  0  0  0  0  0
   -2.0071   13.2179   24.3490 C   0  0  0  0  0  0  0  0  0  0  0  0
   -1.3449   14.5584   24.5799 C   0  0  0  0  0  0  0  0  0  0  0  0
   -0.4236   14.6879   23.4475 N   0  0  0  0  0  0  0  0  0  0  0  0
   -0.9753   14.9572   22.6218 H   0  0  0  0  0  0  0  0  0  0  0  0
  1  2  1  0  0  0
  2  3  2  0  0  0
  3 16  1  0  0  0
 16 17  2  0  0  0
 17 18  1  0  0  0
 18 21  1  0  0  0
 21 22  1  0  0  0
 22 23  1  0  0  0
 23 24  1  0  0  0
 24 25  1  0  0  0
 25 26  1  0  0  0
 18 19  1  0  0  0
 19 20  2  0  0  0
  3  4  1  0  0  0
  4  5  2  0  0  0
  5  7  1  0  0  0
  7  8  1  0  0  0
  8  9  2  0  0  0
  9 10  1  0  0  0
 10 11  1  0  0  0
 11 12  1  0  0  0
 12 13  1  0  0  0
 13 14  1  0  0  0
 14 15  1  0  0  0
  5  6  1  0  0  0
  6  2  1  0  0  0
 20 16  1  0  0  0
 15  7  2  0  0  0
 26 22  1  0  0  0
 14 10  2  0  0  0
 26 27  1  0  0  0
M  END
> <minimizedAffinity>
-7.03423

$$$$
OCNT-2312096


 32 37  0  0  0  0  0  0  0  0999 V2000
   -2.6957   19.2831   16.2703 C   0  0  0  0  0  0  0  0  0  0  0  0
   -2.0338   18.2853   17.1376 C   0  0  0  0  0  0  0  0  0  0  0  0
   -0.8429   18.4262   17.8206 C   0  0  0  0  0  0  0  0  0  0  0  0
    0.0260   19.4749   17.8866 N   0  0  0  0  0  0  0  0  0  0  0  0
    1.1239   19.3423   18.5954 C   0  0  0  0  0  0  0  0  0  0  0  0
    1.4047   18.0801   19.3733 C   0  0  0  0  0  0  0  0  0  0  0  0
    0.5211   17.0675   19.2964 C   0  0  0  0  0  0  0  0  0  0  0  0
   -0.6209   17.2251   18.4992 N   0  0  0  0  0  0  0  0  0  0  0  0
   -1.6281   16.3375   18.2623 N   0  0  0  0  0  0  0  0  0  0  0  0
   -2.4640   16.9843   17.4526 C   0  0  0  0  0  0  0  0  0  0  0  0
    2.0210   20.4085   18.6382 N   0  0  0  0  0  0  0  0  0  0  0  0
    2.0964   21.3449   19.7696 C   0  0  0  0  0  0  0  0  0  0  0  0
    3.1537   20.8844   20.7880 C   0  0  0  0  0  0  0  0  0  0  0  0
    4.4846   20.7045   20.1615 N   0  0  0  0  0  0  0  0  0  0  0  0
    4.4765   19.8831   18.9187 C   0  0  0  0  0  0  0  0  0  0  0  0
    4.4411   18.3935   19.2639 C   0  0  0  0  0  0  0  0  0  0  0  0
    3.3309   20.3036   17.9576 C   0  0  0  0  0  0  0  0  0  0  0  0
    5.6343   20.8401   20.9561 C   0  0  0  0  0  0  0  0  0  0  0  0
    6.4893   21.8025   20.6391 N   0  0  0  0  0  0  0  0  0  0  0  0
    7.6418   21.9926   21.3767 C   0  0  0  0  0  0  0  0  0  0  0  0
    7.9866   21.2462   22.4361 C   0  0  0  0  0  0  0  0  0  0  0  0
    7.1310   20.2324   22.7981 N   0  0  0  0  0  0  0  0  0  0  0  0
    7.1574   19.2996   23.7902 C   0  0  0  0  0  0  0  0  0  0  0  0
    6.0875   18.5378   23.7097 N   0  0  0  0  0  0  0  0  0  0  0  0
    5.3375   18.9808   22.6377 N   0  0  0  0  0  0  0  0  0  0  0  0
    5.9763   19.9995   22.1029 C   0  0  0  0  0  0  0  0  0  0  0  0
    0.7910   15.8246   20.0457 C   0  0  0  0  0  0  0  0  0  0  0  0
    0.0037   14.6800   19.8460 C   0  0  0  0  0  0  0  0  0  0  0  0
    0.2525   13.5116   20.5700 C   0  0  0  0  0  0  0  0  0  0  0  0
    1.2909   13.4740   21.4986 C   0  0  0  0  0  0  0  0  0  0  0  0
    2.0836   14.6018   21.7015 C   0  0  0  0  0  0  0  0  0  0  0  0
    1.8356   15.7711   20.9788 C   0  0  0  0  0  0  0  0  0  0  0  0
  1  2  1  0  0  0
  2  3  2  0  0  0
  3  4  1  0  0  0
  4  5  2  0  0  0
  5 11  1  0  0  0
 11 12  1  0  0  0
 12 13  1  0  0  0
 13 14  1  0  0  0
 14 18  1  0  0  0
 18 19  2  0  0  0
 19 20  1  0  0  0
 20 21  2  0  0  0
 21 22  1  0  0  0
 22 23  1  0  0  0
 23 24  2  0  0  0
 24 25  1  0  0  0
 25 26  2  0  0  0
 14 15  1  0  0  0
 15 16  1  0  0  0
 15 17  1  0  0  0
  5  6  1  0  0  0
  6  7  2  0  0  0
  7 27  1  0  0  0
 27 28  2  0  0  0
 28 29  1  0  0  0
 29 30  2  0  0  0
 30 31  1  0  0  0
 31 32  2  0  0  0
  7  8  1  0  0  0
  8  9  1  0  0  0
  9 10  2  0  0  0
 10  2  1  0  0  0
  8  3  1  0  0  0
 17 11  1  0  0  0
 32 27  1  0  0  0
 26 18  1  0  0  0
 26 22  1  0  0  0
M  END
> <minimizedAffinity>
3.60727

$$$$
OCNT-2312101


 25 26  0  0  0  0  0  0  0  0999 V2000
    0.0091   18.5429   19.3916 C   0  0  0  0  0  0  0  0  0  0  0  0
    0.1136   17.0841   19.4288 N   0  0  0  0  0  0  0  0  0  0  0  0
    0.7745   16.4775   20.4860 C   0  0  0  0  0  0  0  0  0  0  0  0
    0.8634   15.1412   20.5909 C   0  0  0  0  0  0  0  0  0  0  0  0
    0.2440   14.3172   19.5663 C   0  0  0  0  0  0  0  0  0  0  0  0
   -0.4237   14.8653   18.5416 C   0  0  0  0  0  0  0  0  0  0  0  0
   -1.1681   13.8909   17.3354 Cl  0  0  0  0  0  0  0  0  0  0  0  0
   -0.5419   16.3559   18.4299 C   0  0  0  0  0  0  0  0  0  0  0  0
   -1.1803   16.8908   17.5257 O   0  0  0  0  0  0  0  0  0  0  0  0
    1.5711   14.4450   21.7190 C   0  0  0  0  0  0  0  0  0  0  0  0
    0.8417   14.4870   22.8633 F   0  0  0  0  0  0  0  0  0  0  0  0
    2.7664   15.0249   21.9938 F   0  0  0  0  0  0  0  0  0  0  0  0
    1.8166   13.1362   21.4581 F   0  0  0  0  0  0  0  0  0  0  0  0
    2.3189   19.0092   20.0174 N   0  0  0  0  0  0  0  0  0  0  0  0
    1.3671   19.1426   19.0390 C   0  0  0  0  0  0  0  0  0  0  0  0
    1.5900   19.6491   17.9417 O   0  0  0  0  0  0  0  0  0  0  0  0
    2.1220   18.4525   20.8511 H   0  0  0  0  0  0  0  0  0  0  0  0
    3.8214   20.9502   19.8545 C   0  0  0  0  0  0  0  0  0  0  0  0
    3.7035   19.4283   19.8332 C   0  0  0  0  0  0  0  0  0  0  0  0
    4.5470   18.7993   20.9099 C   0  0  0  0  0  0  0  0  0  0  0  0
    4.5931   17.4727   21.1228 N   0  0  0  0  0  0  0  0  0  0  0  0
    5.4795   17.3910   22.1269 N   0  0  0  0  0  0  0  0  0  0  0  0
    5.9230   18.6213   22.4930 C   0  0  0  0  0  0  0  0  0  0  0  0
    5.3558   19.5354   21.7422 N   0  0  0  0  0  0  0  0  0  0  0  0
    5.7256   16.4814   22.5010 H   0  0  0  0  0  0  0  0  0  0  0  0
 18 19  1  0  0  0
 19 14  1  0  0  0
 14 15  1  0  0  0
 15 16  2  0  0  0
 15  1  1  0  0  0
  1  2  1  0  0  0
  2  3  1  0  0  0
  3  4  2  0  0  0
  4 10  1  0  0  0
 10 11  1  0  0  0
 10 12  1  0  0  0
 10 13  1  0  0  0
  4  5  1  0  0  0
  5  6  2  0  0  0
  6  7  1  0  0  0
  6  8  1  0  0  0
  8  9  2  0  0  0
 19 20  1  0  0  0
 20 21  2  0  0  0
 21 22  1  0  0  0
 22 23  1  0  0  0
 23 24  2  0  0  0
  8  2  1  0  0  0
 24 20  1  0  0  0
 14 17  1  0  0  0
 22 25  1  0  0  0
M  END
> <minimizedAffinity>
-9.30052

$$$$
OCNT-2312103


 25 27  0  0  0  0  0  0  0  0999 V2000
    2.5552   15.8689   22.1254 N   0  0  0  0  0  0  0  0  0  0  0  0
    1.8549   16.4299   21.6377 H   0  0  0  0  0  0  0  0  0  0  0  0
    2.3484   14.4545   21.8136 C   0  0  0  0  0  0  0  0  0  0  0  0
    1.0316   14.2477   21.0506 C   0  0  0  0  0  0  0  0  0  0  0  0
   -0.4932   14.2876   18.7349 O   0  0  0  0  0  0  0  0  0  0  0  0
   -0.1106   15.3611   19.1864 C   0  0  0  0  0  0  0  0  0  0  0  0
    0.6099   15.4586   20.3626 N   0  0  0  0  0  0  0  0  0  0  0  0
    1.2315   16.2507   20.4419 H   0  0  0  0  0  0  0  0  0  0  0  0
   -0.3458   16.6169   18.5222 C   0  0  0  0  0  0  0  0  0  0  0  0
   -0.3270   16.9057   17.1706 C   0  0  0  0  0  0  0  0  0  0  0  0
   -0.6316   18.2743   17.0787 C   0  0  0  0  0  0  0  0  0  0  0  0
   -0.8493   18.8231   18.2752 N   0  0  0  0  0  0  0  0  0  0  0  0
   -0.7092   17.7914   19.1237 N   0  0  0  0  0  0  0  0  0  0  0  0
   -0.8928   17.9533   20.1076 H   0  0  0  0  0  0  0  0  0  0  0  0
    3.8836   16.3508   21.7357 C   0  0  0  0  0  0  0  0  0  0  0  0
    3.8605   17.6974   21.0479 C   0  0  0  0  0  0  0  0  0  0  0  0
    2.8202   17.9972   20.1414 C   0  0  0  0  0  0  0  0  0  0  0  0
    2.7465   19.2280   19.4913 C   0  0  0  0  0  0  0  0  0  0  0  0
    3.7051   20.2157   19.7158 C   0  0  0  0  0  0  0  0  0  0  0  0
    4.7377   19.9212   20.6115 C   0  0  0  0  0  0  0  0  0  0  0  0
    4.8400   18.6976   21.2757 C   0  0  0  0  0  0  0  0  0  0  0  0
    6.0099   18.7702   22.0890 C   0  0  0  0  0  0  0  0  0  0  0  0
    6.5779   20.0097   21.9086 C   0  0  0  0  0  0  0  0  0  0  0  0
    5.8022   20.6966   21.0147 N   0  0  0  0  0  0  0  0  0  0  0  0
    5.9796   21.6373   20.6909 H   0  0  0  0  0  0  0  0  0  0  0  0
  5  6  2  0  0  0
  6  7  1  0  0  0
  7  4  1  0  0  0
  4  3  1  0  0  0
  3  1  1  0  0  0
  1 15  1  0  0  0
 15 16  1  0  0  0
 16 17  1  0  0  0
 17 18  2  0  0  0
 18 19  1  0  0  0
 19 20  2  0  0  0
 20 21  1  0  0  0
 21 22  1  0  0  0
 22 23  2  0  0  0
 23 24  1  0  0  0
  6  9  1  0  0  0
  9 10  2  0  0  0
 10 11  1  0  0  0
 11 12  2  0  0  0
 12 13  1  0  0  0
 21 16  2  0  0  0
 13  9  1  0  0  0
 24 20  1  0  0  0
  7  8  1  0  0  0
  1  2  1  0  0  0
 24 25  1  0  0  0
 13 14  1  0  0  0
M  END
> <minimizedAffinity>
-9.58530

$$$$
OCNT-2312104


 30 34  0  0  0  0  0  0  0  0999 V2000
    0.9418   19.5449   19.4639 O   0  0  0  0  0  0  0  0  0  0  0  0
    2.1292   19.2313   19.4590 C   0  0  0  0  0  0  0  0  0  0  0  0
    2.5507   17.9758   19.0849 N   0  0  0  0  0  0  0  0  0  0  0  0
    3.5336   17.8367   18.9100 H   0  0  0  0  0  0  0  0  0  0  0  0
    3.1970   20.1473   19.8270 C   0  0  0  0  0  0  0  0  0  0  0  0
    3.3874   21.4866   19.4930 C   0  0  0  0  0  0  0  0  0  0  0  0
    4.6034   21.9363   20.0674 C   0  0  0  0  0  0  0  0  0  0  0  0
    5.1398   20.8647   20.7335 C   0  0  0  0  0  0  0  0  0  0  0  0
    4.2833   19.8040   20.6055 N   0  0  0  0  0  0  0  0  0  0  0  0
    4.5703   18.5165   21.2192 C   0  0  0  0  0  0  0  0  0  0  0  0
    5.6666   18.6373   22.2887 C   0  0  0  0  0  0  0  0  0  0  0  0
    6.8484   19.3929   21.8316 N   0  0  0  0  0  0  0  0  0  0  0  0
    6.4576   20.7840   21.5363 C   0  0  0  0  0  0  0  0  0  0  0  0
    6.5781   21.6494   22.8087 C   0  0  0  0  0  0  0  0  0  0  0  0
    8.0455   21.9372   22.4230 C   0  0  0  0  0  0  0  0  0  0  0  0
    7.6903   21.5307   20.9763 C   0  0  0  0  0  0  0  0  0  0  0  0
    7.2302   18.9236   21.0100 H   0  0  0  0  0  0  0  0  0  0  0  0
    1.6380   16.9893   18.5586 C   0  0  0  0  0  0  0  0  0  0  0  0
    1.0703   16.1389   19.6655 C   0  0  0  0  0  0  0  0  0  0  0  0
    1.7748   15.9773   20.8645 C   0  0  0  0  0  0  0  0  0  0  0  0
    1.2434   15.2078   21.9039 C   0  0  0  0  0  0  0  0  0  0  0  0
   -0.0080   14.5849   21.7773 C   0  0  0  0  0  0  0  0  0  0  0  0
   -0.7115   14.7605   20.5749 C   0  0  0  0  0  0  0  0  0  0  0  0
   -0.1825   15.5293   19.5326 C   0  0  0  0  0  0  0  0  0  0  0  0
   -0.5659   13.7750   22.8715 C   0  0  0  0  0  0  0  0  0  0  0  0
   -0.8701   12.4210   22.6880 C   0  0  0  0  0  0  0  0  0  0  0  0
   -1.3964   11.6990   23.7480 C   0  0  0  0  0  0  0  0  0  0  0  0
   -1.6366   12.2224   24.9676 N   0  0  0  0  0  0  0  0  0  0  0  0
   -1.3367   13.5269   25.1326 C   0  0  0  0  0  0  0  0  0  0  0  0
   -0.8109   14.3307   24.1328 C   0  0  0  0  0  0  0  0  0  0  0  0
  1  2  2  0  0  0
  2  3  1  0  0  0
  3 18  1  0  0  0
 18 19  1  0  0  0
 19 20  1  0  0  0
 20 21  2  0  0  0
 21 22  1  0  0  0
 22 25  1  0  0  0
 25 26  2  0  0  0
 26 27  1  0  0  0
 27 28  2  0  0  0
 28 29  1  0  0  0
 29 30  2  0  0  0
 22 23  2  0  0  0
 23 24  1  0  0  0
  2  5  1  0  0  0
  5  6  2  0  0  0
  6  7  1  0  0  0
  7  8  2  0  0  0
  8  9  1  0  0  0
  9 10  1  0  0  0
 10 11  1  0  0  0
 11 12  1  0  0  0
 12 13  1  0  0  0
 13 14  1  0  0  0
 14 15  1  0  0  0
 15 16  1  0  0  0
 24 19  2  0  0  0
  9  5  1  0  0  0
 16 13  1  0  0  0
 30 25  1  0  0  0
 13  8  1  0  0  0
  3  4  1  0  0  0
 12 17  1  0  0  0
M  END
> <minimizedAffinity>
-1.62361

$$$$
OCNT-2312106


 23 25  0  0  0  0  0  0  0  0999 V2000
    1.7349   18.3463   18.2921 N   0  0  0  0  0  0  0  0  0  0  0  0
    1.7631   19.3906   19.2099 C   0  0  0  0  0  0  0  0  0  0  0  0
    0.7499   20.0627   19.4024 O   0  0  0  0  0  0  0  0  0  0  0  0
    2.5954   17.8441   18.1088 H   0  0  0  0  0  0  0  0  0  0  0  0
    3.0423   19.6277   19.8887 C   0  0  0  0  0  0  0  0  0  0  0  0
    3.6917   20.7706   19.7995 N   0  0  0  0  0  0  0  0  0  0  0  0
    4.8643   20.7184   20.5379 C   0  0  0  0  0  0  0  0  0  0  0  0
    5.8106   21.7419   20.6834 C   0  0  0  0  0  0  0  0  0  0  0  0
    6.9237   21.5606   21.4387 N   0  0  0  0  0  0  0  0  0  0  0  0
    7.1097   20.3748   22.0533 C   0  0  0  0  0  0  0  0  0  0  0  0
    6.2381   19.3021   21.9741 C   0  0  0  0  0  0  0  0  0  0  0  0
    5.0986   19.5078   21.1916 C   0  0  0  0  0  0  0  0  0  0  0  0
    3.8016   18.4272   20.8549 S   0  0  0  0  0  0  0  0  0  0  0  0
    0.5279   18.0117   17.5340 C   0  0  0  0  0  0  0  0  0  0  0  0
    0.0203   19.2675   16.8252 C   0  0  0  0  0  0  0  0  0  0  0  0
   -0.5456   17.3789   18.4438 C   0  0  0  0  0  0  0  0  0  0  0  0
   -0.0591   15.0443   19.3233 C   0  0  0  0  0  0  0  0  0  0  0  0
   -0.2746   13.8021   18.9341 N   0  0  0  0  0  0  0  0  0  0  0  0
   -0.9012   13.8860   17.7209 C   0  0  0  0  0  0  0  0  0  0  0  0
   -1.0843   15.1976   17.3625 C   0  0  0  0  0  0  0  0  0  0  0  0
   -0.5642   15.9295   18.3974 N   0  0  0  0  0  0  0  0  0  0  0  0
    1.0407   14.2031   21.3943 C   0  0  0  0  0  0  0  0  0  0  0  0
    0.6340   15.4266   20.5891 C   0  0  0  0  0  0  0  0  0  0  0  0
 22 23  1  0  0  0
 23 17  1  0  0  0
 17 18  2  0  0  0
 18 19  1  0  0  0
 19 20  2  0  0  0
 20 21  1  0  0  0
 21 16  1  0  0  0
 16 14  1  0  0  0
 14 15  1  0  0  0
 14  1  1  0  0  0
  1  2  1  0  0  0
  2  3  2  0  0  0
  2  5  1  0  0  0
  5  6  2  0  0  0
  6  7  1  0  0  0
  7  8  2  0  0  0
  8  9  1  0  0  0
  9 10  2  0  0  0
 10 11  1  0  0  0
 11 12  2  0  0  0
 12 13  1  0  0  0
 21 17  1  0  0  0
 13  5  1  0  0  0
 12  7  1  0  0  0
  1  4  1  0  0  0
M  END
> <minimizedAffinity>
-7.85308

$$$$
OCNT-2312113


 22 24  0  0  0  0  0  0  0  0999 V2000
    2.8329   15.9055   20.9561 N   0  0  0  0  0  0  0  0  0  0  0  0
    3.1429   15.2202   22.1055 C   0  0  0  0  0  0  0  0  0  0  0  0
    2.1943   14.5371   22.6641 N   0  0  0  0  0  0  0  0  0  0  0  0
    1.1040   14.7572   21.8456 C   0  0  0  0  0  0  0  0  0  0  0  0
    0.0323   14.1752   21.9269 O   0  0  0  0  0  0  0  0  0  0  0  0
    1.4382   15.6962   20.8638 N   0  0  0  0  0  0  0  0  0  0  0  0
    4.5703   21.3480   20.1854 C   0  0  0  0  0  0  0  0  0  0  0  0
    4.1480   19.9227   20.4072 C   0  0  0  0  0  0  0  0  0  0  0  0
    3.0224   19.4231   19.7403 C   0  0  0  0  0  0  0  0  0  0  0  0
    2.6091   18.1010   19.9313 C   0  0  0  0  0  0  0  0  0  0  0  0
    3.3052   17.2375   20.7924 C   0  0  0  0  0  0  0  0  0  0  0  0
    4.4323   17.7419   21.4568 C   0  0  0  0  0  0  0  0  0  0  0  0
    4.8479   19.0656   21.2674 C   0  0  0  0  0  0  0  0  0  0  0  0
    6.2482   19.5997   22.1282 Cl  0  0  0  0  0  0  0  0  0  0  0  0
    0.8304   15.6250   19.5462 C   0  0  0  0  0  0  0  0  0  0  0  0
   -0.3380   16.6022   19.3683 C   0  0  0  0  0  0  0  0  0  0  0  0
   -0.6828   16.8513   17.8881 C   0  0  0  0  0  0  0  0  0  0  0  0
    0.4545   17.5790   17.1752 C   0  0  0  0  0  0  0  0  0  0  0  0
    0.1298   19.0606   17.3260 C   0  0  0  0  0  0  0  0  0  0  0  0
   -1.2453   19.1521   17.8375 N   0  0  0  0  0  0  0  0  0  0  0  0
   -1.8366   17.8221   17.6668 C   0  0  0  0  0  0  0  0  0  0  0  0
   -1.2081   19.3767   18.8318 H   0  0  0  0  0  0  0  0  0  0  0  0
  7  8  1  0  0  0
  8  9  1  0  0  0
  9 10  2  0  0  0
 10 11  1  0  0  0
 11  1  1  0  0  0
  1  2  1  0  0  0
  2  3  2  0  0  0
  3  4  1  0  0  0
  4  5  2  0  0  0
  4  6  1  0  0  0
  6 15  1  0  0  0
 15 16  1  0  0  0
 16 17  1  0  0  0
 17 18  1  0  0  0
 18 19  1  0  0  0
 19 20  1  0  0  0
 20 21  1  0  0  0
 11 12  2  0  0  0
 12 13  1  0  0  0
 13 14  1  0  0  0
 13  8  2  0  0  0
  6  1  1  0  0  0
 21 17  1  0  0  0
 20 22  1  0  0  0
M  END
> <minimizedAffinity>
-9.37954

$$$$
OCNT-2312122


 23 26  0  0  0  0  0  0  0  0999 V2000
    1.1539   16.5423   19.9180 C   0  0  0  0  0  0  0  0  0  0  0  0
    2.3725   17.0582   20.2972 C   0  0  0  0  0  0  0  0  0  0  0  0
    2.8087   16.2065   21.2702 N   0  0  0  0  0  0  0  0  0  0  0  0
    1.9247   15.2136   21.4827 N   0  0  0  0  0  0  0  0  0  0  0  0
    0.8958   15.4206   20.6714 N   0  0  0  0  0  0  0  0  0  0  0  0
   -0.1188   18.4451   18.8430 C   0  0  0  0  0  0  0  0  0  0  0  0
   -1.0370   18.8571   17.8644 C   0  0  0  0  0  0  0  0  0  0  0  0
   -1.6015   17.9368   16.9774 C   0  0  0  0  0  0  0  0  0  0  0  0
   -1.2547   16.5940   17.0534 C   0  0  0  0  0  0  0  0  0  0  0  0
   -0.3473   16.1696   18.0231 C   0  0  0  0  0  0  0  0  0  0  0  0
    0.2247   17.0783   18.9339 C   0  0  0  0  0  0  0  0  0  0  0  0
    1.2164   20.4053   19.1815 C   0  0  0  0  0  0  0  0  0  0  0  0
    0.4884   19.3098   19.7194 O   0  0  0  0  0  0  0  0  0  0  0  0
    4.0770   16.2216   21.9670 C   0  0  0  0  0  0  0  0  0  0  0  0
    4.7288   17.5422   21.8230 C   0  0  0  0  0  0  0  0  0  0  0  0
    5.8887   17.9515   22.3202 N   0  0  0  0  0  0  0  0  0  0  0  0
    5.9821   19.2408   21.8808 C   0  0  0  0  0  0  0  0  0  0  0  0
    4.8751   19.5639   21.1427 C   0  0  0  0  0  0  0  0  0  0  0  0
    4.5545   20.8471   20.4953 C   0  0  0  0  0  0  0  0  0  0  0  0
    5.8404   21.7059   20.4556 C   0  0  0  0  0  0  0  0  0  0  0  0
    6.6622   21.6237   21.7661 C   0  0  0  0  0  0  0  0  0  0  0  0
    7.1013   20.1804   22.1141 C   0  0  0  0  0  0  0  0  0  0  0  0
    4.0441   18.4950   21.0998 O   0  0  0  0  0  0  0  0  0  0  0  0
 12 13  1  0  0  0
 13  6  1  0  0  0
  6  7  2  0  0  0
  7  8  1  0  0  0
  8  9  2  0  0  0
  9 10  1  0  0  0
 10 11  2  0  0  0
 11  1  1  0  0  0
  1  2  2  0  0  0
  2  3  1  0  0  0
  3 14  1  0  0  0
 14 15  1  0  0  0
 15 16  2  0  0  0
 16 17  1  0  0  0
 17 18  2  0  0  0
 18 19  1  0  0  0
 19 20  1  0  0  0
 20 21  1  0  0  0
 21 22  1  0  0  0
 18 23  1  0  0  0
  3  4  1  0  0  0
  4  5  2  0  0  0
 11  6  1  0  0  0
  5  1  1  0  0  0
 23 15  1  0  0  0
 22 17  1  0  0  0
M  END
> <minimizedAffinity>
-10.35314

$$$$
OCNT-2312131


 22 23  0  0  0  0  0  0  0  0999 V2000
    0.5355   18.3370   18.6139 N   0  0  0  0  0  0  0  0  0  0  0  0
    0.6102   19.6220   18.2266 N   0  0  0  0  0  0  0  0  0  0  0  0
    1.7360   20.0717   18.7595 N   0  0  0  0  0  0  0  0  0  0  0  0
    2.2807   19.0358   19.4825 C   0  0  0  0  0  0  0  0  0  0  0  0
    1.5185   17.9272   19.4458 N   0  0  0  0  0  0  0  0  0  0  0  0
    3.5316   19.1588   20.2204 C   0  0  0  0  0  0  0  0  0  0  0  0
    4.3406   20.2953   20.0635 C   0  0  0  0  0  0  0  0  0  0  0  0
    5.5416   20.4188   20.7702 C   0  0  0  0  0  0  0  0  0  0  0  0
    5.9415   19.4060   21.6388 C   0  0  0  0  0  0  0  0  0  0  0  0
    7.4177   19.5578   22.5086 Cl  0  0  0  0  0  0  0  0  0  0  0  0
    5.1525   18.2704   21.8064 C   0  0  0  0  0  0  0  0  0  0  0  0
    3.9518   18.1477   21.0991 C   0  0  0  0  0  0  0  0  0  0  0  0
   -0.6176   17.4986   18.3497 C   0  0  0  0  0  0  0  0  0  0  0  0
    0.2033   15.8601   19.9392 N   0  0  0  0  0  0  0  0  0  0  0  0
   -0.2830   16.0458   18.6468 C   0  0  0  0  0  0  0  0  0  0  0  0
   -0.4828   15.1263   17.8578 O   0  0  0  0  0  0  0  0  0  0  0  0
    0.7805   16.5860   20.3522 H   0  0  0  0  0  0  0  0  0  0  0  0
    0.7070   14.5528   20.1659 O   0  0  0  0  0  0  0  0  0  0  0  0
    2.3516   14.7653   21.8848 C   0  0  0  0  0  0  0  0  0  0  0  0
    0.9192   14.3843   21.5693 C   0  0  0  0  0  0  0  0  0  0  0  0
   -1.2019   17.6338   16.9324 C   0  0  0  0  0  0  0  0  0  0  0  0
   -2.2779   18.7079   16.8388 C   0  0  0  0  0  0  0  0  0  0  0  0
 19 20  1  0  0  0
 20 18  1  0  0  0
 18 14  1  0  0  0
 14 15  1  0  0  0
 15 16  2  0  0  0
 15 13  1  0  0  0
 13 21  1  0  0  0
 21 22  1  0  0  0
 13  1  1  0  0  0
  1  2  1  0  0  0
  2  3  2  0  0  0
  3  4  1  0  0  0
  4  6  1  0  0  0
  6  7  1  0  0  0
  7  8  2  0  0  0
  8  9  1  0  0  0
  9 10  1  0  0  0
  9 11  2  0  0  0
 11 12  1  0  0  0
  4  5  2  0  0  0
  5  1  1  0  0  0
 12  6  2  0  0  0
 14 17  1  0  0  0
M  END
> <minimizedAffinity>
-8.86349

$$$$
OCNT-2312136


 23 25  0  0  0  0  0  0  0  0999 V2000
    4.3371   15.7480   21.7369 C   0  0  0  0  0  0  0  0  0  0  0  0
    4.3053   17.1236   21.2324 N   0  0  0  0  0  0  0  0  0  0  0  0
    3.3371   17.4263   21.1158 H   0  0  0  0  0  0  0  0  0  0  0  0
    6.5311   17.8535   22.1356 C   0  0  0  0  0  0  0  0  0  0  0  0
    5.0180   18.1498   22.0283 C   0  0  0  0  0  0  0  0  0  0  0  0
    4.4392   18.1884   23.4616 C   0  0  0  0  0  0  0  0  0  0  0  0
    4.8539   19.4909   21.2825 C   0  0  0  0  0  0  0  0  0  0  0  0
    5.5819   20.6166   21.7090 C   0  0  0  0  0  0  0  0  0  0  0  0
    5.4354   21.8237   21.0424 C   0  0  0  0  0  0  0  0  0  0  0  0
    4.6200   22.0006   19.9846 N   0  0  0  0  0  0  0  0  0  0  0  0
    3.9266   20.9183   19.5783 C   0  0  0  0  0  0  0  0  0  0  0  0
    4.0076   19.6682   20.1803 C   0  0  0  0  0  0  0  0  0  0  0  0
    2.9122   15.2433   21.9932 C   0  0  0  0  0  0  0  0  0  0  0  0
    1.9826   15.7503   20.9525 C   0  0  0  0  0  0  0  0  0  0  0  0
    1.7787   16.9967   20.5691 N   0  0  0  0  0  0  0  0  0  0  0  0
    0.8205   16.8822   19.5932 C   0  0  0  0  0  0  0  0  0  0  0  0
    0.1910   17.8528   18.8043 C   0  0  0  0  0  0  0  0  0  0  0  0
   -0.7655   17.4148   17.8785 C   0  0  0  0  0  0  0  0  0  0  0  0
   -1.6429   18.6922   16.7901 Br  0  0  0  0  0  0  0  0  0  0  0  0
   -1.0898   16.0587   17.7372 C   0  0  0  0  0  0  0  0  0  0  0  0
   -0.4658   15.0805   18.5217 C   0  0  0  0  0  0  0  0  0  0  0  0
    0.4765   15.5498   19.4282 C   0  0  0  0  0  0  0  0  0  0  0  0
    1.2206   14.8144   20.3030 O   0  0  0  0  0  0  0  0  0  0  0  0
  4  5  1  0  0  0
  5  6  1  0  0  0
  5  2  1  0  0  0
  2  1  1  0  0  0
  1 13  1  0  0  0
 13 14  1  0  0  0
 14 15  2  0  0  0
 15 16  1  0  0  0
 16 17  2  0  0  0
 17 18  1  0  0  0
 18 19  1  0  0  0
 18 20  2  0  0  0
 20 21  1  0  0  0
 21 22  2  0  0  0
 22 23  1  0  0  0
  5  7  1  0  0  0
  7  8  2  0  0  0
  8  9  1  0  0  0
  9 10  2  0  0  0
 10 11  1  0  0  0
 11 12  2  0  0  0
 23 14  1  0  0  0
 12  7  1  0  0  0
 22 16  1  0  0  0
  2  3  1  0  0  0
M  END
> <minimizedAffinity>
-8.69208

$$$$
OCNT-2312140


 23 26  0  0  0  0  0  0  0  0999 V2000
    3.1661   19.8844   19.9309 N   0  0  0  0  0  0  0  0  0  0  0  0
    2.9196   18.5941   19.5204 C   0  0  0  0  0  0  0  0  0  0  0  0
    1.5970   18.5949   19.1465 C   0  0  0  0  0  0  0  0  0  0  0  0
    1.0751   19.8410   19.3280 N   0  0  0  0  0  0  0  0  0  0  0  0
    2.0349   20.6215   19.8056 N   0  0  0  0  0  0  0  0  0  0  0  0
    0.7921   17.3794   18.5979 C   0  0  0  0  0  0  0  0  0  0  0  0
    0.6418   16.1703   19.2470 C   0  0  0  0  0  0  0  0  0  0  0  0
   -0.1514   15.2476   18.4938 C   0  0  0  0  0  0  0  0  0  0  0  0
   -0.5681   15.8143   17.3047 C   0  0  0  0  0  0  0  0  0  0  0  0
   -1.3892   15.0924   16.2845 C   0  0  0  0  0  0  0  0  0  0  0  0
   -1.9208   13.7774   16.8953 C   0  0  0  0  0  0  0  0  0  0  0  0
   -0.9101   13.0667   17.7068 N   0  0  0  0  0  0  0  0  0  0  0  0
   -0.5391   13.8551   18.8961 C   0  0  0  0  0  0  0  0  0  0  0  0
   -0.0172   17.4045   17.0936 S   0  0  0  0  0  0  0  0  0  0  0  0
   -0.0700   12.9448   17.1404 H   0  0  0  0  0  0  0  0  0  0  0  0
    7.3788   19.4920   22.5711 C   0  0  0  0  0  0  0  0  0  0  0  0
    6.4279   20.2816   21.7226 C   0  0  0  0  0  0  0  0  0  0  0  0
    5.2414   19.7058   21.2396 C   0  0  0  0  0  0  0  0  0  0  0  0
    4.3736   20.4492   20.4217 C   0  0  0  0  0  0  0  0  0  0  0  0
    4.7046   21.7710   20.0808 C   0  0  0  0  0  0  0  0  0  0  0  0
    5.8902   22.3391   20.5490 C   0  0  0  0  0  0  0  0  0  0  0  0
    6.7400   21.5934   21.3577 C   0  0  0  0  0  0  0  0  0  0  0  0
    7.8789   22.1531   21.7897 F   0  0  0  0  0  0  0  0  0  0  0  0
 16 17  1  0  0  0
 17 18  1  0  0  0
 18 19  2  0  0  0
 19  1  1  0  0  0
  1  2  1  0  0  0
  2  3  2  0  0  0
  3  6  1  0  0  0
  6  7  2  0  0  0
  7  8  1  0  0  0
  8  9  2  0  0  0
  9 10  1  0  0  0
 10 11  1  0  0  0
 11 12  1  0  0  0
 12 13  1  0  0  0
  9 14  1  0  0  0
  3  4  1  0  0  0
  4  5  2  0  0  0
 19 20  1  0  0  0
 20 21  2  0  0  0
 21 22  1  0  0  0
 22 23  1  0  0  0
 22 17  2  0  0  0
  5  1  1  0  0  0
 14  6  1  0  0  0
 13  8  1  0  0  0
 12 15  1  0  0  0
M  END
> <minimizedAffinity>
-4.30680

$$$$
OCNT-2312144


 28 31  0  0  0  0  0  0  0  0999 V2000
    5.5793   17.2058   21.9177 C   0  0  0  0  0  0  0  0  0  0  0  0
    5.6631   17.6571   20.4534 C   0  0  0  0  0  0  0  0  0  0  0  0
    4.2211   17.9779   20.0840 C   0  0  0  0  0  0  0  0  0  0  0  0
    3.4229   17.1223   20.9461 N   0  0  0  0  0  0  0  0  0  0  0  0
    2.0886   16.8215   20.8317 C   0  0  0  0  0  0  0  0  0  0  0  0
    1.5399   15.9724   21.5269 O   0  0  0  0  0  0  0  0  0  0  0  0
    1.4219   17.5347   19.8752 N   0  0  0  0  0  0  0  0  0  0  0  0
    4.2499   16.4468   21.9342 C   0  0  0  0  0  0  0  0  0  0  0  0
    1.8488   18.3863   19.5546 H   0  0  0  0  0  0  0  0  0  0  0  0
   -0.0101   17.3812   19.6602 C   0  0  0  0  0  0  0  0  0  0  0  0
   -0.6588   18.6561   19.0942 C   0  0  0  0  0  0  0  0  0  0  0  0
   -0.0389   19.1699   17.7962 C   0  0  0  0  0  0  0  0  0  0  0  0
    0.2213   18.0752   16.7754 C   0  0  0  0  0  0  0  0  0  0  0  0
   -0.8689   17.1591   16.7363 O   0  0  0  0  0  0  0  0  0  0  0  0
   -0.6774   16.0577   17.5298 C   0  0  0  0  0  0  0  0  0  0  0  0
   -0.9596   14.8235   16.9301 C   0  0  0  0  0  0  0  0  0  0  0  0
   -1.3664   14.7747   15.6521 F   0  0  0  0  0  0  0  0  0  0  0  0
   -0.8041   13.6282   17.6226 C   0  0  0  0  0  0  0  0  0  0  0  0
   -0.3687   13.6555   18.9418 C   0  0  0  0  0  0  0  0  0  0  0  0
   -0.1073   14.8813   19.5588 C   0  0  0  0  0  0  0  0  0  0  0  0
   -0.2716   16.1067   18.8736 C   0  0  0  0  0  0  0  0  0  0  0  0
    5.5880   18.4059   22.8808 C   0  0  0  0  0  0  0  0  0  0  0  0
    7.9975   22.0921   20.4640 C   0  0  0  0  0  0  0  0  0  0  0  0
    7.0104   21.2975   21.1527 N   0  0  0  0  0  0  0  0  0  0  0  0
    7.1620   20.0293   21.6322 C   0  0  0  0  0  0  0  0  0  0  0  0
    5.9580   19.6869   22.2141 C   0  0  0  0  0  0  0  0  0  0  0  0
    5.1487   20.8305   22.0199 C   0  0  0  0  0  0  0  0  0  0  0  0
    5.7876   21.8083   21.3747 N   0  0  0  0  0  0  0  0  0  0  0  0
 23 24  1  0  0  0
 24 25  1  0  0  0
 25 26  2  0  0  0
 26 22  1  0  0  0
 22  1  1  0  0  0
  1  2  1  0  0  0
  2  3  1  0  0  0
  3  4  1  0  0  0
  4  5  1  0  0  0
  5  6  2  0  0  0
  5  7  1  0  0  0
  7 10  1  0  0  0
 10 11  1  0  0  0
 11 12  1  0  0  0
 12 13  1  0  0  0
 13 14  1  0  0  0
 14 15  1  0  0  0
 15 16  2  0  0  0
 16 17  1  0  0  0
 16 18  1  0  0  0
 18 19  2  0  0  0
 19 20  1  0  0  0
 20 21  2  0  0  0
  4  8  1  0  0  0
 26 27  1  0  0  0
 27 28  2  0  0  0
 28 24  1  0  0  0
  8  1  1  0  0  0
 21 10  1  0  0  0
 21 15  1  0  0  0
  7  9  1  0  0  0
M  END
> <minimizedAffinity>
-6.14760

$$$$
OCNT-2312145


 24 26  0  0  0  0  0  0  0  0999 V2000
    2.9375   15.2599   21.7334 C   0  0  0  0  0  0  0  0  0  0  0  0
    3.7235   14.3701   22.0328 O   0  0  0  0  0  0  0  0  0  0  0  0
    3.2432   16.5998   21.7258 N   0  0  0  0  0  0  0  0  0  0  0  0
    2.4903   17.2586   21.5718 H   0  0  0  0  0  0  0  0  0  0  0  0
    1.5199   14.9412   21.3332 C   0  0  0  0  0  0  0  0  0  0  0  0
    0.5439   14.4732   22.4117 C   0  0  0  0  0  0  0  0  0  0  0  0
    1.0871   13.4793   21.4372 C   0  0  0  0  0  0  0  0  0  0  0  0
    0.9711   17.7778   18.7757 C   0  0  0  0  0  0  0  0  0  0  0  0
   -0.0264   17.2340   17.9702 C   0  0  0  0  0  0  0  0  0  0  0  0
   -0.5243   15.9599   18.2447 C   0  0  0  0  0  0  0  0  0  0  0  0
   -0.0283   15.2299   19.3260 C   0  0  0  0  0  0  0  0  0  0  0  0
    0.9715   15.7519   20.1622 C   0  0  0  0  0  0  0  0  0  0  0  0
    1.4602   17.0349   19.8564 C   0  0  0  0  0  0  0  0  0  0  0  0
    0.9442   20.0950   19.3042 C   0  0  0  0  0  0  0  0  0  0  0  0
    1.5521   19.0065   18.6199 O   0  0  0  0  0  0  0  0  0  0  0  0
    4.5622   17.0992   22.0890 C   0  0  0  0  0  0  0  0  0  0  0  0
    5.4888   17.0540   20.8749 C   0  0  0  0  0  0  0  0  0  0  0  0
    4.5199   18.4915   22.7588 C   0  0  0  0  0  0  0  0  0  0  0  0
    5.1578   19.6024   21.9662 C   0  0  0  0  0  0  0  0  0  0  0  0
    6.4629   20.0325   22.2159 C   0  0  0  0  0  0  0  0  0  0  0  0
    7.0143   21.0486   21.4409 C   0  0  0  0  0  0  0  0  0  0  0  0
    6.2390   21.6028   20.4361 C   0  0  0  0  0  0  0  0  0  0  0  0
    4.9742   21.2172   20.1660 N   0  0  0  0  0  0  0  0  0  0  0  0
    4.4611   20.2363   20.9417 C   0  0  0  0  0  0  0  0  0  0  0  0
 14 15  1  0  0  0
 15  8  1  0  0  0
  8  9  1  0  0  0
  9 10  2  0  0  0
 10 11  1  0  0  0
 11 12  2  0  0  0
 12  5  1  0  0  0
  5  1  1  0  0  0
  1  2  2  0  0  0
  1  3  1  0  0  0
  3 16  1  0  0  0
 16 17  1  0  0  0
 16 18  1  0  0  0
 18 19  1  0  0  0
 19 20  1  0  0  0
 20 21  2  0  0  0
 21 22  1  0  0  0
 22 23  2  0  0  0
 23 24  1  0  0  0
  5  6  1  0  0  0
  6  7  1  0  0  0
 12 13  1  0  0  0
 13  8  2  0  0  0
  7  5  1  0  0  0
 24 19  2  0  0  0
  3  4  1  0  0  0
M  END
> <minimizedAffinity>
-10.48262

$$$$
OCNT-2312154


 32 35  0  0  0  0  0  0  0  0999 V2000
    2.0858   18.0412   20.2004 C   0  0  0  0  0  0  0  0  0  0  0  0
    3.1048   18.9875   20.3660 C   0  0  0  0  0  0  0  0  0  0  0  0
    4.3054   18.6110   20.9656 C   0  0  0  0  0  0  0  0  0  0  0  0
    4.5428   17.3557   21.4221 N   0  0  0  0  0  0  0  0  0  0  0  0
    3.5210   16.4919   21.2674 C   0  0  0  0  0  0  0  0  0  0  0  0
    2.2836   16.7427   20.6920 C   0  0  0  0  0  0  0  0  0  0  0  0
    1.5696   15.5189   20.8390 C   0  0  0  0  0  0  0  0  0  0  0  0
    0.1645   15.2037   20.4754 C   0  0  0  0  0  0  0  0  0  0  0  0
    2.3223   14.5653   21.4090 N   0  0  0  0  0  0  0  0  0  0  0  0
    3.4967   15.1820   21.6554 N   0  0  0  0  0  0  0  0  0  0  0  0
    4.5608   14.4539   22.2987 C   0  0  0  0  0  0  0  0  0  0  0  0
    5.4223   19.5648   21.1528 C   0  0  0  0  0  0  0  0  0  0  0  0
    5.4793   20.7576   20.4071 C   0  0  0  0  0  0  0  0  0  0  0  0
    6.5269   21.6699   20.5654 C   0  0  0  0  0  0  0  0  0  0  0  0
    7.5429   21.4103   21.4796 C   0  0  0  0  0  0  0  0  0  0  0  0
    7.5086   20.2434   22.2371 C   0  0  0  0  0  0  0  0  0  0  0  0
    6.4590   19.3325   22.0764 C   0  0  0  0  0  0  0  0  0  0  0  0
    0.5394   17.7303   18.4000 N   0  0  0  0  0  0  0  0  0  0  0  0
    0.8445   18.4588   19.5288 C   0  0  0  0  0  0  0  0  0  0  0  0
    0.2374   19.4200   19.9840 O   0  0  0  0  0  0  0  0  0  0  0  0
    1.1837   17.0073   18.0846 H   0  0  0  0  0  0  0  0  0  0  0  0
   -1.1532   16.9089   16.8527 C   0  0  0  0  0  0  0  0  0  0  0  0
   -0.5815   17.9216   17.6077 C   0  0  0  0  0  0  0  0  0  0  0  0
   -1.3524   19.0920   17.4032 C   0  0  0  0  0  0  0  0  0  0  0  0
   -2.3754   18.7800   16.5312 C   0  0  0  0  0  0  0  0  0  0  0  0
   -3.4673   19.6167   15.9773 C   0  0  0  0  0  0  0  0  0  0  0  0
   -2.2409   17.4551   16.2063 N   0  0  0  0  0  0  0  0  0  0  0  0
   -2.8469   16.9360   15.5829 H   0  0  0  0  0  0  0  0  0  0  0  0
   -0.7354   15.5353   16.7299 C   0  0  0  0  0  0  0  0  0  0  0  0
   -0.3320   15.0164   15.6959 O   0  0  0  0  0  0  0  0  0  0  0  0
   -0.8976   13.4802   17.8319 C   0  0  0  0  0  0  0  0  0  0  0  0
   -0.8533   14.9042   17.9328 O   0  0  0  0  0  0  0  0  0  0  0  0
 31 32  1  0  0  0
 32 29  1  0  0  0
 29 30  2  0  0  0
 29 22  1  0  0  0
 22 23  2  0  0  0
 23 18  1  0  0  0
 18 19  1  0  0  0
 19 20  2  0  0  0
 19  1  1  0  0  0
  1  2  2  0  0  0
  2  3  1  0  0  0
  3 12  1  0  0  0
 12 13  2  0  0  0
 13 14  1  0  0  0
 14 15  2  0  0  0
 15 16  1  0  0  0
 16 17  2  0  0  0
  3  4  2  0  0  0
  4  5  1  0  0  0
  5  6  2  0  0  0
  6  7  1  0  0  0
  7  8  1  0  0  0
  7  9  2  0  0  0
  9 10  1  0  0  0
 10 11  1  0  0  0
 23 24  1  0  0  0
 24 25  2  0  0  0
 25 26  1  0  0  0
 25 27  1  0  0  0
 27 22  1  0  0  0
  6  1  1  0  0  0
 17 12  1  0  0  0
 10  5  1  0  0  0
 18 21  1  0  0  0
 27 28  1  0  0  0
M  END
> <minimizedAffinity>
-4.66178

$$$$
OCNT-2312156


 22 25  0  0  0  0  0  0  0  0999 V2000
    0.2668   19.1583   19.8350 O   0  0  0  0  0  0  0  0  0  0  0  0
    0.9666   18.2671   19.3696 C   0  0  0  0  0  0  0  0  0  0  0  0
    2.3354   18.3093   19.2449 N   0  0  0  0  0  0  0  0  0  0  0  0
    2.8391   17.5055   18.9097 H   0  0  0  0  0  0  0  0  0  0  0  0
    3.0829   19.3874   19.6210 C   0  0  0  0  0  0  0  0  0  0  0  0
    3.0094   20.6349   19.2363 N   0  0  0  0  0  0  0  0  0  0  0  0
    3.9794   21.3712   19.8908 C   0  0  0  0  0  0  0  0  0  0  0  0
    4.7690   20.6564   20.7641 C   0  0  0  0  0  0  0  0  0  0  0  0
    4.2949   19.0161   20.7693 S   0  0  0  0  0  0  0  0  0  0  0  0
    5.9365   21.2124   21.6349 C   0  0  0  0  0  0  0  0  0  0  0  0
    7.2146   21.6896   20.9976 C   0  0  0  0  0  0  0  0  0  0  0  0
    7.2003   20.4057   21.7781 C   0  0  0  0  0  0  0  0  0  0  0  0
    0.3965   17.0077   18.8917 C   0  0  0  0  0  0  0  0  0  0  0  0
   -0.1976   16.7406   17.6613 C   0  0  0  0  0  0  0  0  0  0  0  0
   -0.6843   15.4166   17.6722 C   0  0  0  0  0  0  0  0  0  0  0  0
   -0.3841   14.8900   18.9035 C   0  0  0  0  0  0  0  0  0  0  0  0
    0.3097   15.8324   19.6286 N   0  0  0  0  0  0  0  0  0  0  0  0
    0.8364   15.6175   20.9744 C   0  0  0  0  0  0  0  0  0  0  0  0
    2.3685   15.7590   21.0994 C   0  0  0  0  0  0  0  0  0  0  0  0
    2.8063   14.5863   21.9675 C   0  0  0  0  0  0  0  0  0  0  0  0
    1.8222   13.4876   21.6079 C   0  0  0  0  0  0  0  0  0  0  0  0
    0.4911   14.2221   21.5200 C   0  0  0  0  0  0  0  0  0  0  0  0
  1  2  2  0  0  0
  2  3  1  0  0  0
  3  5  1  0  0  0
  5  6  2  0  0  0
  6  7  1  0  0  0
  7  8  2  0  0  0
  8 10  1  0  0  0
 10 11  1  0  0  0
 11 12  1  0  0  0
  8  9  1  0  0  0
  2 13  1  0  0  0
 13 14  2  0  0  0
 14 15  1  0  0  0
 15 16  2  0  0  0
 16 17  1  0  0  0
 17 18  1  0  0  0
 18 19  1  0  0  0
 19 20  1  0  0  0
 20 21  1  0  0  0
 21 22  1  0  0  0
  9  5  1  0  0  0
 17 13  1  0  0  0
 22 18  1  0  0  0
 12 10  1  0  0  0
  3  4  1  0  0  0
M  END
> <minimizedAffinity>
-9.78260

$$$$
OCNT-2312161


 26 29  0  0  0  0  0  0  0  0999 V2000
    1.1721   15.4972   21.0745 O   0  0  0  0  0  0  0  0  0  0  0  0
    1.5406   16.4813   20.4221 C   0  0  0  0  0  0  0  0  0  0  0  0
    2.7131   17.1649   20.7836 N   0  0  0  0  0  0  0  0  0  0  0  0
    3.5054   16.5485   21.8505 C   0  0  0  0  0  0  0  0  0  0  0  0
    4.3623   17.5582   22.6085 C   0  0  0  0  0  0  0  0  0  0  0  0
    5.2281   18.3924   21.6553 C   0  0  0  0  0  0  0  0  0  0  0  0
    4.3183   19.0528   20.6122 C   0  0  0  0  0  0  0  0  0  0  0  0
    3.4649   18.0253   19.8736 C   0  0  0  0  0  0  0  0  0  0  0  0
    0.6627   17.0021   19.2412 C   0  0  0  0  0  0  0  0  0  0  0  0
    1.5052   18.0033   18.4038 C   0  0  0  0  0  0  0  0  0  0  0  0
    0.5647   19.1157   17.9282 C   0  0  0  0  0  0  0  0  0  0  0  0
   -0.7666   18.8839   18.6241 C   0  0  0  0  0  0  0  0  0  0  0  0
   -0.4350   17.9613   19.7872 C   0  0  0  0  0  0  0  0  0  0  0  0
   -0.0390   15.8678   18.4743 C   0  0  0  0  0  0  0  0  0  0  0  0
   -0.2007   14.5732   19.0011 C   0  0  0  0  0  0  0  0  0  0  0  0
   -0.8408   13.5673   18.2678 C   0  0  0  0  0  0  0  0  0  0  0  0
   -1.3259   13.8284   16.9894 C   0  0  0  0  0  0  0  0  0  0  0  0
   -1.1642   15.0956   16.4409 C   0  0  0  0  0  0  0  0  0  0  0  0
   -0.5257   16.0929   17.1754 C   0  0  0  0  0  0  0  0  0  0  0  0
   -0.3820   17.2939   16.6000 F   0  0  0  0  0  0  0  0  0  0  0  0
    6.0388   19.4657   22.3986 C   0  0  0  0  0  0  0  0  0  0  0  0
    6.3708   20.6091   21.5769 N   0  0  0  0  0  0  0  0  0  0  0  0
    7.5702   20.9056   21.0095 C   0  0  0  0  0  0  0  0  0  0  0  0
    7.4661   22.0207   20.3243 N   0  0  0  0  0  0  0  0  0  0  0  0
    6.1562   22.3669   20.5013 C   0  0  0  0  0  0  0  0  0  0  0  0
    5.4431   21.5283   21.2580 N   0  0  0  0  0  0  0  0  0  0  0  0
  1  2  2  0  0  0
  2  3  1  0  0  0
  3  4  1  0  0  0
  4  5  1  0  0  0
  5  6  1  0  0  0
  6 21  1  0  0  0
 21 22  1  0  0  0
 22 23  1  0  0  0
 23 24  2  0  0  0
 24 25  1  0  0  0
 25 26  2  0  0  0
  6  7  1  0  0  0
  7  8  1  0  0  0
  2  9  1  0  0  0
  9 14  1  0  0  0
 14 15  2  0  0  0
 15 16  1  0  0  0
 16 17  2  0  0  0
 17 18  1  0  0  0
 18 19  2  0  0  0
 19 20  1  0  0  0
  9 10  1  0  0  0
 10 11  1  0  0  0
 11 12  1  0  0  0
 12 13  1  0  0  0
  8  3  1  0  0  0
 13  9  1  0  0  0
 26 22  1  0  0  0
 19 14  1  0  0  0
M  END
> <minimizedAffinity>
-7.47417

$$$$
OCNT-2312174


 27 30  0  0  0  0  0  0  0  0999 V2000
    3.3702   16.2785   20.3055 N   0  0  0  0  0  0  0  0  0  0  0  0
    4.2456   15.7610   20.3271 H   0  0  0  0  0  0  0  0  0  0  0  0
    3.6466   17.6240   20.4120 C   0  0  0  0  0  0  0  0  0  0  0  0
    4.7566   17.9417   21.0346 N   0  0  0  0  0  0  0  0  0  0  0  0
    5.1201   19.2988   21.1890 C   0  0  0  0  0  0  0  0  0  0  0  0
    6.2963   19.5995   21.8766 C   0  0  0  0  0  0  0  0  0  0  0  0
    6.6964   20.9269   22.0564 C   0  0  0  0  0  0  0  0  0  0  0  0
    5.9205   21.9706   21.5479 C   0  0  0  0  0  0  0  0  0  0  0  0
    4.7405   21.6962   20.8563 C   0  0  0  0  0  0  0  0  0  0  0  0
    4.3546   20.3644   20.6862 C   0  0  0  0  0  0  0  0  0  0  0  0
    3.1904   19.9947   20.0030 N   0  0  0  0  0  0  0  0  0  0  0  0
    2.2354   20.7472   19.3766 C   0  0  0  0  0  0  0  0  0  0  0  0
    1.3067   19.9933   18.8256 N   0  0  0  0  0  0  0  0  0  0  0  0
    1.6770   18.7020   19.1141 C   0  0  0  0  0  0  0  0  0  0  0  0
    2.8358   18.6787   19.8572 C   0  0  0  0  0  0  0  0  0  0  0  0
    0.4725   14.1311   22.5412 C   0  0  0  0  0  0  0  0  0  0  0  0
    0.2312   14.5297   21.2222 C   0  0  0  0  0  0  0  0  0  0  0  0
    1.1964   15.2445   20.5042 C   0  0  0  0  0  0  0  0  0  0  0  0
    2.4152   15.5962   21.0936 C   0  0  0  0  0  0  0  0  0  0  0  0
    2.6612   15.1759   22.4038 C   0  0  0  0  0  0  0  0  0  0  0  0
    1.6963   14.4572   23.1236 C   0  0  0  0  0  0  0  0  0  0  0  0
   -1.3627   13.8570   24.2297 C   0  0  0  0  0  0  0  0  0  0  0  0
   -1.3235   14.9553   24.7707 O   0  0  0  0  0  0  0  0  0  0  0  0
   -0.5506   13.4158   23.1960 N   0  0  0  0  0  0  0  0  0  0  0  0
   -0.7061   12.4695   22.8724 H   0  0  0  0  0  0  0  0  0  0  0  0
   -2.2502   11.5277   23.7983 C   0  0  0  0  0  0  0  0  0  0  0  0
   -2.3548   12.7821   24.6478 C   0  0  0  0  0  0  0  0  0  0  0  0
 26 27  1  0  0  0
 27 22  1  0  0  0
 22 23  2  0  0  0
 22 24  1  0  0  0
 24 16  1  0  0  0
 16 17  1  0  0  0
 17 18  2  0  0  0
 18 19  1  0  0  0
 19  1  1  0  0  0
  1  3  1  0  0  0
  3  4  2  0  0  0
  4  5  1  0  0  0
  5  6  2  0  0  0
  6  7  1  0  0  0
  7  8  2  0  0  0
  8  9  1  0  0  0
  9 10  2  0  0  0
 10 11  1  0  0  0
 11 12  1  0  0  0
 12 13  2  0  0  0
 13 14  1  0  0  0
 14 15  2  0  0  0
 19 20  2  0  0  0
 20 21  1  0  0  0
 21 16  2  0  0  0
 15  3  1  0  0  0
 10  5  1  0  0  0
 15 11  1  0  0  0
 24 25  1  0  0  0
  1  2  1  0  0  0
M  END
> <minimizedAffinity>
-7.68338

$$$$
OCNT-2312189


 28 32  0  0  0  0  0  0  0  0999 V2000
    1.7252   14.2880   22.4862 C   0  0  0  0  0  0  0  0  0  0  0  0
    2.7190   13.5316   22.0724 N   0  0  0  0  0  0  0  0  0  0  0  0
    3.7059   14.3588   21.5806 N   0  0  0  0  0  0  0  0  0  0  0  0
    3.3187   15.6050   21.7436 C   0  0  0  0  0  0  0  0  0  0  0  0
    2.0648   15.5964   22.2917 N   0  0  0  0  0  0  0  0  0  0  0  0
    1.5050   16.4090   22.4738 H   0  0  0  0  0  0  0  0  0  0  0  0
   -3.4421   12.5710   25.1176 C   0  0  0  0  0  0  0  0  0  0  0  0
   -3.3371   11.5316   24.1953 C   0  0  0  0  0  0  0  0  0  0  0  0
   -2.2608   11.4628   23.3050 C   0  0  0  0  0  0  0  0  0  0  0  0
   -1.2979   12.4763   23.3763 C   0  0  0  0  0  0  0  0  0  0  0  0
   -0.1480   12.6659   22.6415 N   0  0  0  0  0  0  0  0  0  0  0  0
    0.5058   13.8044   23.0453 C   0  0  0  0  0  0  0  0  0  0  0  0
   -0.2385   14.3493   24.0742 C   0  0  0  0  0  0  0  0  0  0  0  0
   -1.3770   13.5267   24.2885 C   0  0  0  0  0  0  0  0  0  0  0  0
   -2.4689   13.5751   25.1756 C   0  0  0  0  0  0  0  0  0  0  0  0
    0.1583   12.0327   21.9194 H   0  0  0  0  0  0  0  0  0  0  0  0
    3.9349   16.7688   21.3939 N   0  0  0  0  0  0  0  0  0  0  0  0
    4.7242   17.3892   22.4919 C   0  0  0  0  0  0  0  0  0  0  0  0
    5.6217   18.5290   21.9669 C   0  0  0  0  0  0  0  0  0  0  0  0
    4.8412   19.5099   21.1909 N   0  0  0  0  0  0  0  0  0  0  0  0
    4.0119   18.9235   20.1280 C   0  0  0  0  0  0  0  0  0  0  0  0
    3.1272   17.7810   20.6733 C   0  0  0  0  0  0  0  0  0  0  0  0
    5.5883   20.6148   20.7742 C   0  0  0  0  0  0  0  0  0  0  0  0
    6.9071   20.6462   21.0405 N   0  0  0  0  0  0  0  0  0  0  0  0
    7.6143   21.7039   20.5987 C   0  0  0  0  0  0  0  0  0  0  0  0
    7.0642   22.7441   19.8979 C   0  0  0  0  0  0  0  0  0  0  0  0
    5.7183   22.6359   19.6696 C   0  0  0  0  0  0  0  0  0  0  0  0
    4.9732   21.5972   20.0923 N   0  0  0  0  0  0  0  0  0  0  0  0
  7  8  2  0  0  0
  8  9  1  0  0  0
  9 10  2  0  0  0
 10 11  1  0  0  0
 11 12  1  0  0  0
 12  1  1  0  0  0
  1  2  2  0  0  0
  2  3  1  0  0  0
  3  4  2  0  0  0
  4 17  1  0  0  0
 17 18  1  0  0  0
 18 19  1  0  0  0
 19 20  1  0  0  0
 20 23  1  0  0  0
 23 24  2  0  0  0
 24 25  1  0  0  0
 25 26  2  0  0  0
 26 27  1  0  0  0
 27 28  2  0  0  0
 20 21  1  0  0  0
 21 22  1  0  0  0
  4  5  1  0  0  0
 12 13  2  0  0  0
 13 14  1  0  0  0
 14 15  2  0  0  0
 15  7  1  0  0  0
 14 10  1  0  0  0
  5  1  1  0  0  0
 22 17  1  0  0  0
 28 23  1  0  0  0
 11 16  1  0  0  0
  5  6  1  0  0  0
M  END
> <minimizedAffinity>
0.78993

$$$$
OCNT-2312191


 25 27  0  0  0  0  0  0  0  0999 V2000
    2.7086   18.4673   19.5633 N   0  0  0  0  0  0  0  0  0  0  0  0
    5.8263   20.7809   21.0346 C   0  0  0  0  0  0  0  0  0  0  0  0
    5.5664   19.5048   21.4728 C   0  0  0  0  0  0  0  0  0  0  0  0
    4.5717   18.7311   20.9934 N   0  0  0  0  0  0  0  0  0  0  0  0
    3.7740   19.2403   20.0381 C   0  0  0  0  0  0  0  0  0  0  0  0
    3.9495   20.4847   19.5646 N   0  0  0  0  0  0  0  0  0  0  0  0
    4.9627   21.2214   20.0611 C   0  0  0  0  0  0  0  0  0  0  0  0
    8.0096   21.9306   20.5510 C   0  0  0  0  0  0  0  0  0  0  0  0
    6.9306   21.6275   21.5821 C   0  0  0  0  0  0  0  0  0  0  0  0
    2.0037   19.0877   18.4279 C   0  0  0  0  0  0  0  0  0  0  0  0
    0.6906   18.4840   17.9910 C   0  0  0  0  0  0  0  0  0  0  0  0
   -0.3099   19.2565   17.5351 N   0  0  0  0  0  0  0  0  0  0  0  0
   -1.2773   18.3802   17.2125 N   0  0  0  0  0  0  0  0  0  0  0  0
   -2.5104   18.8648   16.6430 C   0  0  0  0  0  0  0  0  0  0  0  0
   -0.9452   17.0836   17.4657 C   0  0  0  0  0  0  0  0  0  0  0  0
    0.3319   17.1144   17.9732 C   0  0  0  0  0  0  0  0  0  0  0  0
    1.8840   17.8632   20.6260 C   0  0  0  0  0  0  0  0  0  0  0  0
    2.0302   16.3300   20.7343 C   0  0  0  0  0  0  0  0  0  0  0  0
    3.1830   15.9280   21.6665 C   0  0  0  0  0  0  0  0  0  0  0  0
    3.0567   14.4870   22.1653 C   0  0  0  0  0  0  0  0  0  0  0  0
    2.1161   13.6774   21.2820 C   0  0  0  0  0  0  0  0  0  0  0  0
    0.7292   14.3503   21.1740 C   0  0  0  0  0  0  0  0  0  0  0  0
    0.0478   13.9717   19.8538 C   0  0  0  0  0  0  0  0  0  0  0  0
   -0.1685   13.9171   22.3393 C   0  0  0  0  0  0  0  0  0  0  0  0
    0.8083   15.7839   21.2556 O   0  0  0  0  0  0  0  0  0  0  0  0
  8  9  1  0  0  0
  9  2  1  0  0  0
  2  3  2  0  0  0
  3  4  1  0  0  0
  4  5  2  0  0  0
  5  1  1  0  0  0
  1 10  1  0  0  0
 10 11  1  0  0  0
 11 12  2  0  0  0
 12 13  1  0  0  0
 13 14  1  0  0  0
 13 15  1  0  0  0
 15 16  2  0  0  0
  1 17  1  0  0  0
 17 18  1  0  0  0
 18 19  1  0  0  0
 19 20  1  0  0  0
 20 21  1  0  0  0
 21 22  1  0  0  0
 22 23  1  0  0  0
 22 24  1  0  0  0
 22 25  1  0  0  0
  5  6  1  0  0  0
  6  7  2  0  0  0
  7  2  1  0  0  0
 16 11  1  0  0  0
 25 18  1  0  0  0
M  END
> <minimizedAffinity>
-8.08690

$$$$
OCNT-2312197


 24 27  0  0  0  0  0  0  0  0999 V2000
    3.5786   15.3670   22.2296 O   0  0  0  0  0  0  0  0  0  0  0  0
    3.0816   16.1499   21.4298 C   0  0  0  0  0  0  0  0  0  0  0  0
    1.9397   15.8721   20.7275 N   0  0  0  0  0  0  0  0  0  0  0  0
    1.3052   16.7752   19.9124 C   0  0  0  0  0  0  0  0  0  0  0  0
    1.7764   17.9578   19.6687 N   0  0  0  0  0  0  0  0  0  0  0  0
    2.9808   18.3303   20.2892 C   0  0  0  0  0  0  0  0  0  0  0  0
    3.5050   19.5989   20.0196 C   0  0  0  0  0  0  0  0  0  0  0  0
    4.6862   19.9607   20.6359 C   0  0  0  0  0  0  0  0  0  0  0  0
    5.3489   19.1133   21.4973 C   0  0  0  0  0  0  0  0  0  0  0  0
    4.8686   17.8568   21.7907 C   0  0  0  0  0  0  0  0  0  0  0  0
    3.6721   17.4743   21.1717 C   0  0  0  0  0  0  0  0  0  0  0  0
    6.4881   19.6639   21.9942 O   0  0  0  0  0  0  0  0  0  0  0  0
    6.4554   20.9430   21.3450 C   0  0  0  0  0  0  0  0  0  0  0  0
    7.5877   21.0847   20.6138 F   0  0  0  0  0  0  0  0  0  0  0  0
    6.4558   21.9093   22.2955 F   0  0  0  0  0  0  0  0  0  0  0  0
    5.3270   21.1509   20.4835 O   0  0  0  0  0  0  0  0  0  0  0  0
    1.4653   14.9974   20.9442 H   0  0  0  0  0  0  0  0  0  0  0  0
    0.0269   16.3014   19.2520 C   0  0  0  0  0  0  0  0  0  0  0  0
   -0.4292   17.2408   18.1875 C   0  0  0  0  0  0  0  0  0  0  0  0
   -1.6393   17.8176   18.2678 N   0  0  0  0  0  0  0  0  0  0  0  0
   -1.7102   18.5774   17.1593 N   0  0  0  0  0  0  0  0  0  0  0  0
   -0.5882   18.5138   16.3880 C   0  0  0  0  0  0  0  0  0  0  0  0
    0.2671   17.6506   17.0277 C   0  0  0  0  0  0  0  0  0  0  0  0
   -2.5550   19.1161   16.9943 H   0  0  0  0  0  0  0  0  0  0  0  0
  1  2  2  0  0  0
  2  3  1  0  0  0
  3  4  1  0  0  0
  4 18  1  0  0  0
 18 19  1  0  0  0
 19 20  2  0  0  0
 20 21  1  0  0  0
 21 22  1  0  0  0
 22 23  2  0  0  0
  4  5  2  0  0  0
  5  6  1  0  0  0
  6  7  2  0  0  0
  7  8  1  0  0  0
  8  9  2  0  0  0
  9 10  1  0  0  0
 10 11  2  0  0  0
  9 12  1  0  0  0
 12 13  1  0  0  0
 13 14  1  0  0  0
 13 15  1  0  0  0
 13 16  1  0  0  0
 11  2  1  0  0  0
 23 19  1  0  0  0
 11  6  1  0  0  0
 16  8  1  0  0  0
  3 17  1  0  0  0
 21 24  1  0  0  0
M  END
> <minimizedAffinity>
-11.36348

$$$$
OCNT-2312208


 22 25  0  0  0  0  0  0  0  0999 V2000
    1.2353   15.7604   20.4437 N   0  0  0  0  0  0  0  0  0  0  0  0
    1.9385   16.9197   20.2842 C   0  0  0  0  0  0  0  0  0  0  0  0
    3.0087   16.7816   21.1398 C   0  0  0  0  0  0  0  0  0  0  0  0
    2.9082   15.5709   21.7835 N   0  0  0  0  0  0  0  0  0  0  0  0
    1.8148   14.9560   21.3541 N   0  0  0  0  0  0  0  0  0  0  0  0
    4.0894   17.7273   21.3635 C   0  0  0  0  0  0  0  0  0  0  0  0
    5.1757   17.4283   22.1960 C   0  0  0  0  0  0  0  0  0  0  0  0
    6.2011   18.3592   22.3933 C   0  0  0  0  0  0  0  0  0  0  0  0
    6.1583   19.6114   21.7591 C   0  0  0  0  0  0  0  0  0  0  0  0
    7.1530   20.5799   21.9186 C   0  0  0  0  0  0  0  0  0  0  0  0
    7.1437   21.7955   21.3236 N   0  0  0  0  0  0  0  0  0  0  0  0
    6.0901   22.0661   20.5265 C   0  0  0  0  0  0  0  0  0  0  0  0
    5.0475   21.1822   20.2960 C   0  0  0  0  0  0  0  0  0  0  0  0
    5.0743   19.9292   20.9203 C   0  0  0  0  0  0  0  0  0  0  0  0
    4.0512   18.9821   20.7328 C   0  0  0  0  0  0  0  0  0  0  0  0
    0.0079   15.3583   19.7868 C   0  0  0  0  0  0  0  0  0  0  0  0
   -0.8417   14.9130   16.8343 C   0  0  0  0  0  0  0  0  0  0  0  0
   -0.8317   16.1775   17.5316 N   0  0  0  0  0  0  0  0  0  0  0  0
   -1.1937   17.3767   16.9819 C   0  0  0  0  0  0  0  0  0  0  0  0
   -1.0258   18.2993   17.9841 C   0  0  0  0  0  0  0  0  0  0  0  0
   -0.5718   17.6946   19.1252 N   0  0  0  0  0  0  0  0  0  0  0  0
   -0.4555   16.4101   18.8367 C   0  0  0  0  0  0  0  0  0  0  0  0
 17 18  1  0  0  0
 18 19  1  0  0  0
 19 20  2  0  0  0
 20 21  1  0  0  0
 21 22  2  0  0  0
 22 16  1  0  0  0
 16  1  1  0  0  0
  1  2  1  0  0  0
  2  3  2  0  0  0
  3  6  1  0  0  0
  6  7  1  0  0  0
  7  8  2  0  0  0
  8  9  1  0  0  0
  9 10  2  0  0  0
 10 11  1  0  0  0
 11 12  2  0  0  0
 12 13  1  0  0  0
 13 14  2  0  0  0
 14 15  1  0  0  0
  3  4  1  0  0  0
  4  5  2  0  0  0
 22 18  1  0  0  0
  5  1  1  0  0  0
 15  6  2  0  0  0
 14  9  1  0  0  0
M  END
> <minimizedAffinity>
-9.49948

$$$$
OCNT-2312209


 22 24  0  0  0  0  0  0  0  0999 V2000
    1.1405   19.5737   18.0516 C   0  0  0  0  0  0  0  0  0  0  0  0
   -0.3510   19.2362   18.0243 C   0  0  0  0  0  0  0  0  0  0  0  0
   -0.5228   18.2132   19.1464 C   0  0  0  0  0  0  0  0  0  0  0  0
    0.7770   17.5530   19.2263 N   0  0  0  0  0  0  0  0  0  0  0  0
    1.7715   18.2147   18.3837 C   0  0  0  0  0  0  0  0  0  0  0  0
    0.9977   16.3763   19.9045 C   0  0  0  0  0  0  0  0  0  0  0  0
    0.1871   15.2441   19.7038 C   0  0  0  0  0  0  0  0  0  0  0  0
    0.4024   14.0447   20.3933 C   0  0  0  0  0  0  0  0  0  0  0  0
    1.4408   13.9590   21.3049 C   0  0  0  0  0  0  0  0  0  0  0  0
    1.6515   12.8143   21.9669 F   0  0  0  0  0  0  0  0  0  0  0  0
    2.2619   15.0492   21.5380 C   0  0  0  0  0  0  0  0  0  0  0  0
    2.0369   16.2438   20.8430 C   0  0  0  0  0  0  0  0  0  0  0  0
    1.5038   20.6210   19.1096 C   0  0  0  0  0  0  0  0  0  0  0  0
    3.8254   22.0643   19.6727 O   0  0  0  0  0  0  0  0  0  0  0  0
    3.7142   20.9351   20.1390 C   0  0  0  0  0  0  0  0  0  0  0  0
    2.5786   20.1660   19.9740 N   0  0  0  0  0  0  0  0  0  0  0  0
    2.6740   19.1741   20.1318 H   0  0  0  0  0  0  0  0  0  0  0  0
    4.7951   20.2911   20.8917 C   0  0  0  0  0  0  0  0  0  0  0  0
    4.6741   18.9947   21.3657 C   0  0  0  0  0  0  0  0  0  0  0  0
    6.0527   18.4543   22.2180 S   0  0  0  0  0  0  0  0  0  0  0  0
    6.8596   19.9347   21.9531 C   0  0  0  0  0  0  0  0  0  0  0  0
    6.0881   20.8225   21.2345 C   0  0  0  0  0  0  0  0  0  0  0  0
 14 15  2  0  0  0
 15 16  1  0  0  0
 16 13  1  0  0  0
 13  1  1  0  0  0
  1  2  1  0  0  0
  2  3  1  0  0  0
  3  4  1  0  0  0
  4  6  1  0  0  0
  6  7  1  0  0  0
  7  8  2  0  0  0
  8  9  1  0  0  0
  9 10  1  0  0  0
  9 11  2  0  0  0
 11 12  1  0  0  0
  4  5  1  0  0  0
 15 18  1  0  0  0
 18 19  2  0  0  0
 19 20  1  0  0  0
 20 21  1  0  0  0
 21 22  2  0  0  0
  5  1  1  0  0  0
 22 18  1  0  0  0
 12  6  2  0  0  0
 16 17  1  0  0  0
M  END
> <minimizedAffinity>
-8.27219

$$$$
OCNT-2312210


 28 31  0  0  0  0  0  0  0  0999 V2000
    1.7579   14.8582   22.1185 C   0  0  0  0  0  0  0  0  0  0  0  0
    1.3608   14.1227   20.9621 O   0  0  0  0  0  0  0  0  0  0  0  0
   -2.1563   19.0823   16.3924 O   0  0  0  0  0  0  0  0  0  0  0  0
   -1.4462   18.4509   17.1718 C   0  0  0  0  0  0  0  0  0  0  0  0
   -0.3493   19.1070   17.9788 C   0  0  0  0  0  0  0  0  0  0  0  0
   -0.1486   18.4326   19.3260 C   0  0  0  0  0  0  0  0  0  0  0  0
   -0.0769   16.9391   19.1813 C   0  0  0  0  0  0  0  0  0  0  0  0
    0.6311   16.1525   20.0976 C   0  0  0  0  0  0  0  0  0  0  0  0
    0.6135   14.7562   20.0089 C   0  0  0  0  0  0  0  0  0  0  0  0
   -0.1331   14.1463   18.9998 C   0  0  0  0  0  0  0  0  0  0  0  0
   -0.8547   14.9245   18.0875 C   0  0  0  0  0  0  0  0  0  0  0  0
   -0.8164   16.3137   18.1756 C   0  0  0  0  0  0  0  0  0  0  0  0
   -1.5427   17.0880   17.2674 N   0  0  0  0  0  0  0  0  0  0  0  0
   -2.1888   16.6466   16.6258 H   0  0  0  0  0  0  0  0  0  0  0  0
    3.2497   15.1862   22.0840 C   0  0  0  0  0  0  0  0  0  0  0  0
    3.4730   16.6022   21.9905 O   0  0  0  0  0  0  0  0  0  0  0  0
    4.5366   16.9718   21.2313 C   0  0  0  0  0  0  0  0  0  0  0  0
    5.5251   16.2934   21.0112 O   0  0  0  0  0  0  0  0  0  0  0  0
    4.3256   18.3580   20.7369 C   0  0  0  0  0  0  0  0  0  0  0  0
    3.2831   18.5773   19.8181 C   0  0  0  0  0  0  0  0  0  0  0  0
    3.0523   19.8493   19.3055 C   0  0  0  0  0  0  0  0  0  0  0  0
    3.8611   20.9099   19.7035 C   0  0  0  0  0  0  0  0  0  0  0  0
    4.9096   20.7115   20.6191 C   0  0  0  0  0  0  0  0  0  0  0  0
    5.7244   21.7708   21.0274 C   0  0  0  0  0  0  0  0  0  0  0  0
    6.7456   21.6650   21.9055 N   0  0  0  0  0  0  0  0  0  0  0  0
    6.9754   20.4393   22.4088 C   0  0  0  0  0  0  0  0  0  0  0  0
    6.2305   19.3179   22.0765 C   0  0  0  0  0  0  0  0  0  0  0  0
    5.1651   19.4283   21.1547 C   0  0  0  0  0  0  0  0  0  0  0  0
  3  4  2  0  0  0
  4  5  1  0  0  0
  5  6  1  0  0  0
  6  7  1  0  0  0
  7  8  1  0  0  0
  8  9  2  0  0  0
  9  2  1  0  0  0
  2  1  1  0  0  0
  1 15  1  0  0  0
 15 16  1  0  0  0
 16 17  1  0  0  0
 17 18  2  0  0  0
 17 19  1  0  0  0
 19 20  2  0  0  0
 20 21  1  0  0  0
 21 22  2  0  0  0
 22 23  1  0  0  0
 23 24  2  0  0  0
 24 25  1  0  0  0
 25 26  2  0  0  0
 26 27  1  0  0  0
 27 28  2  0  0  0
  9 10  1  0  0  0
 10 11  2  0  0  0
 11 12  1  0  0  0
 12 13  1  0  0  0
 13  4  1  0  0  0
 12  7  2  0  0  0
 28 19  1  0  0  0
 28 23  1  0  0  0
 13 14  1  0  0  0
M  END
> <minimizedAffinity>
-10.80438

$$$$
OCNT-2312211


 22 24  0  0  0  0  0  0  0  0999 V2000
   -0.2706   16.6227   18.9313 C   0  0  0  0  0  0  0  0  0  0  0  0
   -0.5364   15.2709   19.1486 C   0  0  0  0  0  0  0  0  0  0  0  0
    0.3107   14.5114   19.9592 C   0  0  0  0  0  0  0  0  0  0  0  0
    1.4275   15.0977   20.5571 C   0  0  0  0  0  0  0  0  0  0  0  0
    1.7118   16.4535   20.3515 C   0  0  0  0  0  0  0  0  0  0  0  0
    0.8520   17.2039   19.5346 C   0  0  0  0  0  0  0  0  0  0  0  0
    2.8743   17.0829   20.9684 C   0  0  0  0  0  0  0  0  0  0  0  0
    3.5682   16.5503   21.9820 N   0  0  0  0  0  0  0  0  0  0  0  0
    4.5642   17.4843   22.2279 O   0  0  0  0  0  0  0  0  0  0  0  0
    4.3989   18.5267   21.3364 C   0  0  0  0  0  0  0  0  0  0  0  0
    3.3595   18.3015   20.5512 N   0  0  0  0  0  0  0  0  0  0  0  0
    5.2417   19.6865   21.2887 C   0  0  0  0  0  0  0  0  0  0  0  0
    4.8575   20.7368   20.5316 C   0  0  0  0  0  0  0  0  0  0  0  0
    5.6998   21.9749   20.4132 C   0  0  0  0  0  0  0  0  0  0  0  0
    7.1177   21.7404   20.9270 C   0  0  0  0  0  0  0  0  0  0  0  0
    7.0667   21.0824   22.1916 O   0  0  0  0  0  0  0  0  0  0  0  0
    6.5396   19.7524   22.0735 C   0  0  0  0  0  0  0  0  0  0  0  0
   -1.0074   17.4822   18.1671 O   0  0  0  0  0  0  0  0  0  0  0  0
    0.6940   17.3958   16.6467 F   0  0  0  0  0  0  0  0  0  0  0  0
   -0.3636   18.1173   17.0761 C   0  0  0  0  0  0  0  0  0  0  0  0
    0.0437   19.3614   17.4069 F   0  0  0  0  0  0  0  0  0  0  0  0
   -1.2424   18.2214   16.0548 F   0  0  0  0  0  0  0  0  0  0  0  0
 19 20  1  0  0  0
 20 21  1  0  0  0
 20 22  1  0  0  0
 20 18  1  0  0  0
 18  1  1  0  0  0
  1  2  1  0  0  0
  2  3  2  0  0  0
  3  4  1  0  0  0
  4  5  2  0  0  0
  5  7  1  0  0  0
  7  8  2  0  0  0
  8  9  1  0  0  0
  9 10  1  0  0  0
 10 12  1  0  0  0
 12 13  2  0  0  0
 13 14  1  0  0  0
 14 15  1  0  0  0
 15 16  1  0  0  0
 16 17  1  0  0  0
 10 11  2  0  0  0
  5  6  1  0  0  0
  6  1  2  0  0  0
 11  7  1  0  0  0
 17 12  1  0  0  0
M  END
> <minimizedAffinity>
-11.30255

$$$$
OCNT-2312217


 26 29  0  0  0  0  0  0  0  0999 V2000
    3.5811   19.1351   20.2689 N   0  0  0  0  0  0  0  0  0  0  0  0
    2.4301   19.2054   19.5365 C   0  0  0  0  0  0  0  0  0  0  0  0
    1.9436   18.2075   18.8260 N   0  0  0  0  0  0  0  0  0  0  0  0
    0.7643   18.5951   18.2089 C   0  0  0  0  0  0  0  0  0  0  0  0
    0.2930   19.8256   18.4068 N   0  0  0  0  0  0  0  0  0  0  0  0
    1.3687   20.5798   19.4239 S   0  0  0  0  0  0  0  0  0  0  0  0
    0.0181   17.5618   17.2979 C   0  0  0  0  0  0  0  0  0  0  0  0
   -1.3482   17.0607   17.6899 C   0  0  0  0  0  0  0  0  0  0  0  0
   -1.1971   17.9817   16.5113 C   0  0  0  0  0  0  0  0  0  0  0  0
    3.5218   18.4806   21.5903 C   0  0  0  0  0  0  0  0  0  0  0  0
    2.2156   15.0995   21.3662 C   0  0  0  0  0  0  0  0  0  0  0  0
    2.1385   16.4133   21.3499 N   0  0  0  0  0  0  0  0  0  0  0  0
    3.3832   16.9776   21.6089 C   0  0  0  0  0  0  0  0  0  0  0  0
    4.3819   16.0551   21.8658 C   0  0  0  0  0  0  0  0  0  0  0  0
    3.7702   14.4622   21.7370 S   0  0  0  0  0  0  0  0  0  0  0  0
    0.1677   14.0448   22.3228 C   0  0  0  0  0  0  0  0  0  0  0  0
    1.0570   14.1781   21.0851 C   0  0  0  0  0  0  0  0  0  0  0  0
    0.2471   14.6874   19.8903 C   0  0  0  0  0  0  0  0  0  0  0  0
    4.9112   19.3780   19.6954 C   0  0  0  0  0  0  0  0  0  0  0  0
    5.8228   20.2667   20.5731 C   0  0  0  0  0  0  0  0  0  0  0  0
    6.8767   20.6683   19.7957 F   0  0  0  0  0  0  0  0  0  0  0  0
    6.3906   19.5473   21.7922 C   0  0  0  0  0  0  0  0  0  0  0  0
    7.2982   20.4846   22.5852 C   0  0  0  0  0  0  0  0  0  0  0  0
    6.8810   21.8500   22.5790 O   0  0  0  0  0  0  0  0  0  0  0  0
    5.4865   22.0162   22.3873 C   0  0  0  0  0  0  0  0  0  0  0  0
    5.0724   21.5402   20.9989 C   0  0  0  0  0  0  0  0  0  0  0  0
 16 17  1  0  0  0
 17 18  1  0  0  0
 17 11  1  0  0  0
 11 12  2  0  0  0
 12 13  1  0  0  0
 13 10  1  0  0  0
 10  1  1  0  0  0
  1 19  1  0  0  0
 19 20  1  0  0  0
 20 21  1  0  0  0
 20 22  1  0  0  0
 22 23  1  0  0  0
 23 24  1  0  0  0
 24 25  1  0  0  0
 25 26  1  0  0  0
  1  2  1  0  0  0
  2  3  2  0  0  0
  3  4  1  0  0  0
  4  7  1  0  0  0
  7  8  1  0  0  0
  8  9  1  0  0  0
  4  5  2  0  0  0
  5  6  1  0  0  0
 13 14  2  0  0  0
 14 15  1  0  0  0
 15 11  1  0  0  0
 26 20  1  0  0  0
  6  2  1  0  0  0
  9  7  1  0  0  0
M  END
> <minimizedAffinity>
-7.84471

$$$$
OCNT-2312222


 22 25  0  0  0  0  0  0  0  0999 V2000
    3.9537   18.2074   23.2083 C   0  0  0  0  0  0  0  0  0  0  0  0
    4.7174   17.5627   22.0322 C   0  0  0  0  0  0  0  0  0  0  0  0
    6.2111   17.4981   22.4170 C   0  0  0  0  0  0  0  0  0  0  0  0
    4.2197   16.1018   21.8368 C   0  0  0  0  0  0  0  0  0  0  0  0
    2.8983   16.0309   21.1592 C   0  0  0  0  0  0  0  0  0  0  0  0
    2.0570   15.0244   21.1501 N   0  0  0  0  0  0  0  0  0  0  0  0
    0.9727   15.3955   20.3907 N   0  0  0  0  0  0  0  0  0  0  0  0
    1.1623   16.6267   19.9512 C   0  0  0  0  0  0  0  0  0  0  0  0
    2.3881   17.0464   20.3949 N   0  0  0  0  0  0  0  0  0  0  0  0
    3.0444   18.3182   20.2034 C   0  0  0  0  0  0  0  0  0  0  0  0
    4.5194   18.3184   20.6699 C   0  0  0  0  0  0  0  0  0  0  0  0
    5.1235   19.7148   20.5891 C   0  0  0  0  0  0  0  0  0  0  0  0
    6.4031   20.0144   21.0804 C   0  0  0  0  0  0  0  0  0  0  0  0
    6.9181   21.3102   20.9926 C   0  0  0  0  0  0  0  0  0  0  0  0
    6.1630   22.3261   20.4136 C   0  0  0  0  0  0  0  0  0  0  0  0
    4.8924   22.0474   19.9193 C   0  0  0  0  0  0  0  0  0  0  0  0
    4.3767   20.7528   20.0058 C   0  0  0  0  0  0  0  0  0  0  0  0
    0.1084   17.4063   19.0869 C   0  0  0  0  0  0  0  0  0  0  0  0
    0.0279   18.7435   19.1364 N   0  0  0  0  0  0  0  0  0  0  0  0
   -0.9845   19.1007   18.2679 O   0  0  0  0  0  0  0  0  0  0  0  0
   -1.5007   17.9859   17.7013 C   0  0  0  0  0  0  0  0  0  0  0  0
   -0.8444   16.8826   18.1828 C   0  0  0  0  0  0  0  0  0  0  0  0
  1  2  1  0  0  0
  2  3  1  0  0  0
  2  4  1  0  0  0
  4  5  1  0  0  0
  5  6  2  0  0  0
  6  7  1  0  0  0
  7  8  2  0  0  0
  8 18  1  0  0  0
 18 19  2  0  0  0
 19 20  1  0  0  0
 20 21  1  0  0  0
 21 22  2  0  0  0
  8  9  1  0  0  0
  9 10  1  0  0  0
 10 11  1  0  0  0
 11 12  1  0  0  0
 12 13  2  0  0  0
 13 14  1  0  0  0
 14 15  2  0  0  0
 15 16  1  0  0  0
 16 17  2  0  0  0
 11  2  1  0  0  0
 17 12  1  0  0  0
  9  5  1  0  0  0
 22 18  1  0  0  0
M  END
> <minimizedAffinity>
-9.67601

$$$$
OCNT-2312226


 24 27  0  0  0  0  0  0  0  0999 V2000
    4.0661   17.8475   23.2404 C   0  0  0  0  0  0  0  0  0  0  0  0
    4.6547   17.3125   21.9172 C   0  0  0  0  0  0  0  0  0  0  0  0
    6.1712   17.6023   21.9245 C   0  0  0  0  0  0  0  0  0  0  0  0
    4.4740   15.7662   21.8668 C   0  0  0  0  0  0  0  0  0  0  0  0
    3.0885   15.3587   21.5150 C   0  0  0  0  0  0  0  0  0  0  0  0
    2.5139   14.1923   21.7027 N   0  0  0  0  0  0  0  0  0  0  0  0
    1.2395   14.2630   21.1923 N   0  0  0  0  0  0  0  0  0  0  0  0
    1.0563   15.4714   20.7003 C   0  0  0  0  0  0  0  0  0  0  0  0
    2.2078   16.1873   20.8791 N   0  0  0  0  0  0  0  0  0  0  0  0
    2.4668   17.5729   20.5570 C   0  0  0  0  0  0  0  0  0  0  0  0
    3.9701   17.9242   20.6394 C   0  0  0  0  0  0  0  0  0  0  0  0
    4.2075   19.4112   20.4081 C   0  0  0  0  0  0  0  0  0  0  0  0
    5.3793   20.0629   20.8209 C   0  0  0  0  0  0  0  0  0  0  0  0
    5.5557   21.4302   20.5941 C   0  0  0  0  0  0  0  0  0  0  0  0
    4.5647   22.1672   19.9517 C   0  0  0  0  0  0  0  0  0  0  0  0
    3.3965   21.5376   19.5334 C   0  0  0  0  0  0  0  0  0  0  0  0
    3.2190   20.1712   19.7593 C   0  0  0  0  0  0  0  0  0  0  0  0
   -0.1777   16.0034   20.0637 C   0  0  0  0  0  0  0  0  0  0  0  0
   -0.1456   15.8524   18.5444 C   0  0  0  0  0  0  0  0  0  0  0  0
   -0.3972   17.1168   17.8818 N   0  0  0  0  0  0  0  0  0  0  0  0
    0.5453   17.9814   17.4020 C   0  0  0  0  0  0  0  0  0  0  0  0
   -0.1734   19.0373   16.8914 C   0  0  0  0  0  0  0  0  0  0  0  0
   -1.5198   18.8310   17.0495 N   0  0  0  0  0  0  0  0  0  0  0  0
   -1.6252   17.6595   17.6353 C   0  0  0  0  0  0  0  0  0  0  0  0
  1  2  1  0  0  0
  2  3  1  0  0  0
  2  4  1  0  0  0
  4  5  1  0  0  0
  5  6  2  0  0  0
  6  7  1  0  0  0
  7  8  2  0  0  0
  8 18  1  0  0  0
 18 19  1  0  0  0
 19 20  1  0  0  0
 20 21  1  0  0  0
 21 22  2  0  0  0
 22 23  1  0  0  0
 23 24  2  0  0  0
  8  9  1  0  0  0
  9 10  1  0  0  0
 10 11  1  0  0  0
 11 12  1  0  0  0
 12 13  2  0  0  0
 13 14  1  0  0  0
 14 15  2  0  0  0
 15 16  1  0  0  0
 16 17  2  0  0  0
 11  2  1  0  0  0
 17 12  1  0  0  0
  9  5  1  0  0  0
 24 20  1  0  0  0
M  END
> <minimizedAffinity>
-9.27296

$$$$
OCNT-2312233


 24 27  0  0  0  0  0  0  0  0999 V2000
    1.7277   16.1311   20.7869 C   0  0  0  0  0  0  0  0  0  0  0  0
    2.3951   15.2385   21.4794 N   0  0  0  0  0  0  0  0  0  0  0  0
    3.5704   15.8483   21.8642 N   0  0  0  0  0  0  0  0  0  0  0  0
    3.5394   17.0755   21.3786 C   0  0  0  0  0  0  0  0  0  0  0  0
    2.3848   17.3166   20.6710 O   0  0  0  0  0  0  0  0  0  0  0  0
    4.6676   18.1298   21.5704 C   0  0  0  0  0  0  0  0  0  0  0  0
    5.8081   17.9125   22.3119 C   0  0  0  0  0  0  0  0  0  0  0  0
    6.5628   19.0543   22.2539 N   0  0  0  0  0  0  0  0  0  0  0  0
    5.9286   20.0070   21.4873 C   0  0  0  0  0  0  0  0  0  0  0  0
    6.3268   21.3087   21.1591 C   0  0  0  0  0  0  0  0  0  0  0  0
    5.4721   22.0640   20.3510 C   0  0  0  0  0  0  0  0  0  0  0  0
    4.2682   21.5372   19.8905 C   0  0  0  0  0  0  0  0  0  0  0  0
    3.8842   20.2341   20.2274 C   0  0  0  0  0  0  0  0  0  0  0  0
    4.7271   19.4493   21.0414 C   0  0  0  0  0  0  0  0  0  0  0  0
    7.4576   19.1881   22.7051 H   0  0  0  0  0  0  0  0  0  0  0  0
    0.5363   16.0560   20.1686 N   0  0  0  0  0  0  0  0  0  0  0  0
   -0.2815   16.0604   20.7695 H   0  0  0  0  0  0  0  0  0  0  0  0
   -2.2993   18.5530   17.3245 O   0  0  0  0  0  0  0  0  0  0  0  0
   -0.8963   18.2125   17.2107 S   0  0  0  0  0  0  0  0  0  0  0  0
    0.0292   18.9969   16.4214 O   0  0  0  0  0  0  0  0  0  0  0  0
   -0.7676   16.5062   16.7038 C   0  0  0  0  0  0  0  0  0  0  0  0
   -0.5272   15.7330   17.9911 C   0  0  0  0  0  0  0  0  0  0  0  0
    0.4017   16.6154   18.8339 C   0  0  0  0  0  0  0  0  0  0  0  0
   -0.2315   18.0037   18.8511 C   0  0  0  0  0  0  0  0  0  0  0  0
 18 19  2  0  0  0
 19 20  2  0  0  0
 19 21  1  0  0  0
 21 22  1  0  0  0
 22 23  1  0  0  0
 23 16  1  0  0  0
 16  1  1  0  0  0
  1  2  2  0  0  0
  2  3  1  0  0  0
  3  4  2  0  0  0
  4  6  1  0  0  0
  6  7  2  0  0  0
  7  8  1  0  0  0
  8  9  1  0  0  0
  9 10  2  0  0  0
 10 11  1  0  0  0
 11 12  2  0  0  0
 12 13  1  0  0  0
 13 14  2  0  0  0
  4  5  1  0  0  0
 23 24  1  0  0  0
 24 19  1  0  0  0
  5  1  1  0  0  0
 14  6  1  0  0  0
 14  9  1  0  0  0
 16 17  1  0  0  0
  8 15  1  0  0  0
M  END
> <minimizedAffinity>
-9.93807

$$$$
OCNT-2312244


 25 27  0  0  0  0  0  0  0  0999 V2000
    0.0883   16.8864   18.4306 C   0  0  0  0  0  0  0  0  0  0  0  0
   -0.6592   17.2589   17.3057 C   0  0  0  0  0  0  0  0  0  0  0  0
   -0.5532   18.5460   16.7792 C   0  0  0  0  0  0  0  0  0  0  0  0
    0.3024   19.4745   17.3703 C   0  0  0  0  0  0  0  0  0  0  0  0
    1.0614   19.1274   18.4958 C   0  0  0  0  0  0  0  0  0  0  0  0
    0.9538   17.8277   19.0126 C   0  0  0  0  0  0  0  0  0  0  0  0
   -0.0226   15.4917   19.0017 C   0  0  0  0  0  0  0  0  0  0  0  0
    0.0599   15.5138   20.4599 N   0  0  0  0  0  0  0  0  0  0  0  0
   -0.6844   14.9684   20.8833 H   0  0  0  0  0  0  0  0  0  0  0  0
    3.5311   15.6882   21.6455 C   0  0  0  0  0  0  0  0  0  0  0  0
    3.7181   14.3786   22.0325 C   0  0  0  0  0  0  0  0  0  0  0  0
    2.7418   13.4631   21.9188 N   0  0  0  0  0  0  0  0  0  0  0  0
    1.5291   13.8385   21.3953 N   0  0  0  0  0  0  0  0  0  0  0  0
    1.2919   15.1090   21.0064 C   0  0  0  0  0  0  0  0  0  0  0  0
    2.2940   16.0609   21.1254 C   0  0  0  0  0  0  0  0  0  0  0  0
    5.4523   17.4036   21.8801 N   0  0  0  0  0  0  0  0  0  0  0  0
    4.5886   16.6359   21.7783 C   0  0  0  0  0  0  0  0  0  0  0  0
    2.0113   20.1229   19.1157 C   0  0  0  0  0  0  0  0  0  0  0  0
    3.0117   19.4802   19.9059 O   0  0  0  0  0  0  0  0  0  0  0  0
    4.3254   19.9907   19.6557 C   0  0  0  0  0  0  0  0  0  0  0  0
    4.6608   21.1484   20.6086 C   0  0  0  0  0  0  0  0  0  0  0  0
    5.7042   22.1196   20.0732 C   0  0  0  0  0  0  0  0  0  0  0  0
    6.9864   21.6411   20.7059 C   0  0  0  0  0  0  0  0  0  0  0  0
    6.5090   21.1180   22.0405 C   0  0  0  0  0  0  0  0  0  0  0  0
    5.1793   20.6208   21.8477 O   0  0  0  0  0  0  0  0  0  0  0  0
 16 17  3  0  0  0
 17 10  1  0  0  0
 10 11  2  0  0  0
 11 12  1  0  0  0
 12 13  2  0  0  0
 13 14  1  0  0  0
 14  8  1  0  0  0
  8  7  1  0  0  0
  7  1  1  0  0  0
  1  2  2  0  0  0
  2  3  1  0  0  0
  3  4  2  0  0  0
  4  5  1  0  0  0
  5 18  1  0  0  0
 18 19  1  0  0  0
 19 20  1  0  0  0
 20 21  1  0  0  0
 21 22  1  0  0  0
 22 23  1  0  0  0
 23 24  1  0  0  0
 24 25  1  0  0  0
  5  6  2  0  0  0
 14 15  2  0  0  0
 15 10  1  0  0  0
  6  1  1  0  0  0
 25 21  1  0  0  0
  8  9  1  0  0  0
M  END
> <minimizedAffinity>
-9.09580

$$$$
OCNT-2312277


 28 32  0  0  0  0  0  0  0  0999 V2000
    3.4188   15.5553   21.6669 O   0  0  0  0  0  0  0  0  0  0  0  0
    2.3403   15.7831   21.1120 C   0  0  0  0  0  0  0  0  0  0  0  0
    2.1760   16.9374   20.3296 N   0  0  0  0  0  0  0  0  0  0  0  0
    1.0476   17.1709   19.4294 C   0  0  0  0  0  0  0  0  0  0  0  0
    1.3364   18.2488   18.3886 C   0  0  0  0  0  0  0  0  0  0  0  0
    1.7599   19.5645   19.0368 C   0  0  0  0  0  0  0  0  0  0  0  0
    2.7172   19.3648   20.2290 C   0  0  0  0  0  0  0  0  0  0  0  0
    3.2573   17.9261   20.3135 C   0  0  0  0  0  0  0  0  0  0  0  0
    1.2209   14.8203   21.2837 C   0  0  0  0  0  0  0  0  0  0  0  0
    0.6282   14.1243   20.2854 N   0  0  0  0  0  0  0  0  0  0  0  0
   -0.3328   13.3953   20.8829 N   0  0  0  0  0  0  0  0  0  0  0  0
   -0.3773   13.5849   22.2212 C   0  0  0  0  0  0  0  0  0  0  0  0
    0.5848   14.5167   22.5208 C   0  0  0  0  0  0  0  0  0  0  0  0
    0.8124   14.9894   23.9121 C   0  0  0  0  0  0  0  0  0  0  0  0
   -0.2651   14.5837   24.8003 O   0  0  0  0  0  0  0  0  0  0  0  0
   -0.6566   13.2076   24.6147 C   0  0  0  0  0  0  0  0  0  0  0  0
   -1.2817   12.9730   23.2193 C   0  0  0  0  0  0  0  0  0  0  0  0
   -0.9138   12.7957   20.3055 H   0  0  0  0  0  0  0  0  0  0  0  0
    3.8194   20.3936   20.2626 C   0  0  0  0  0  0  0  0  0  0  0  0
    3.7888   21.6198   19.6243 C   0  0  0  0  0  0  0  0  0  0  0  0
    4.9557   22.2800   19.8937 N   0  0  0  0  0  0  0  0  0  0  0  0
    5.7629   21.5112   20.6973 C   0  0  0  0  0  0  0  0  0  0  0  0
    7.0350   21.7831   21.2160 C   0  0  0  0  0  0  0  0  0  0  0  0
    7.6323   20.8059   22.0163 C   0  0  0  0  0  0  0  0  0  0  0  0
    6.9814   19.6053   22.2843 C   0  0  0  0  0  0  0  0  0  0  0  0
    5.7098   19.3503   21.7572 C   0  0  0  0  0  0  0  0  0  0  0  0
    5.0803   20.3198   20.9473 C   0  0  0  0  0  0  0  0  0  0  0  0
    5.1956   23.2014   19.5557 H   0  0  0  0  0  0  0  0  0  0  0  0
  1  2  2  0  0  0
  2  9  1  0  0  0
  9 10  2  0  0  0
 10 11  1  0  0  0
 11 12  1  0  0  0
 12 13  2  0  0  0
 13 14  1  0  0  0
 14 15  1  0  0  0
 15 16  1  0  0  0
 16 17  1  0  0  0
  2  3  1  0  0  0
  3  4  1  0  0  0
  4  5  1  0  0  0
  5  6  1  0  0  0
  6  7  1  0  0  0
  7 19  1  0  0  0
 19 20  2  0  0  0
 20 21  1  0  0  0
 21 22  1  0  0  0
 22 23  2  0  0  0
 23 24  1  0  0  0
 24 25  2  0  0  0
 25 26  1  0  0  0
 26 27  2  0  0  0
  7  8  1  0  0  0
 13  9  1  0  0  0
  8  3  1  0  0  0
 17 12  1  0  0  0
 27 19  1  0  0  0
 27 22  1  0  0  0
 11 18  1  0  0  0
 21 28  1  0  0  0
M  END
> <minimizedAffinity>
-4.13900

$$$$
OCNT-2312278


 21 24  0  0  0  0  0  0  0  0999 V2000
    3.0747   18.3003   20.5535 C   0  0  0  0  0  0  0  0  0  0  0  0
    4.0415   18.1985   21.4496 N   0  0  0  0  0  0  0  0  0  0  0  0
    4.8199   19.3138   21.3037 C   0  0  0  0  0  0  0  0  0  0  0  0
    6.0033   19.6646   21.9652 C   0  0  0  0  0  0  0  0  0  0  0  0
    6.6037   20.8760   21.6287 C   0  0  0  0  0  0  0  0  0  0  0  0
    7.7388   21.2344   22.2447 F   0  0  0  0  0  0  0  0  0  0  0  0
    6.0575   21.7277   20.6720 C   0  0  0  0  0  0  0  0  0  0  0  0
    4.8722   21.3939   20.0087 C   0  0  0  0  0  0  0  0  0  0  0  0
    4.2813   20.1693   20.3489 C   0  0  0  0  0  0  0  0  0  0  0  0
    3.1237   19.5348   19.9457 N   0  0  0  0  0  0  0  0  0  0  0  0
    2.0589   20.1969   19.2352 C   0  0  0  0  0  0  0  0  0  0  0  0
    0.7799   13.8758   21.2181 C   0  0  0  0  0  0  0  0  0  0  0  0
    1.1192   15.1789   20.7018 N   0  0  0  0  0  0  0  0  0  0  0  0
    2.1631   15.9624   21.0782 C   0  0  0  0  0  0  0  0  0  0  0  0
    2.0644   17.1252   20.3423 C   0  0  0  0  0  0  0  0  0  0  0  0
    0.9756   16.8892   19.4702 C   0  0  0  0  0  0  0  0  0  0  0  0
    0.3654   15.7251   19.7338 N   0  0  0  0  0  0  0  0  0  0  0  0
    0.5507   17.7503   18.2425 C   0  0  0  0  0  0  0  0  0  0  0  0
   -0.2018   16.9691   17.1281 C   0  0  0  0  0  0  0  0  0  0  0  0
   -1.0683   18.2293   16.9344 C   0  0  0  0  0  0  0  0  0  0  0  0
   -0.7659   18.5641   18.4085 C   0  0  0  0  0  0  0  0  0  0  0  0
 12 13  1  0  0  0
 13 14  1  0  0  0
 14 15  2  0  0  0
 15  1  1  0  0  0
  1  2  2  0  0  0
  2  3  1  0  0  0
  3  4  2  0  0  0
  4  5  1  0  0  0
  5  6  1  0  0  0
  5  7  2  0  0  0
  7  8  1  0  0  0
  8  9  2  0  0  0
  9 10  1  0  0  0
 10 11  1  0  0  0
 15 16  1  0  0  0
 16 18  1  0  0  0
 18 19  1  0  0  0
 19 20  1  0  0  0
 20 21  1  0  0  0
 16 17  2  0  0  0
 17 13  1  0  0  0
 10  1  1  0  0  0
 21 18  1  0  0  0
  9  3  1  0  0  0
M  END
> <minimizedAffinity>
-10.68701

$$$$
OCNT-2312285


 24 27  0  0  0  0  0  0  0  0999 V2000
    1.0320   20.0015   18.3817 N   0  0  0  0  0  0  0  0  0  0  0  0
    1.1328   19.9580   17.3726 H   0  0  0  0  0  0  0  0  0  0  0  0
    4.2554   20.0116   20.2720 C   0  0  0  0  0  0  0  0  0  0  0  0
    3.9759   18.7777   19.9089 N   0  0  0  0  0  0  0  0  0  0  0  0
    2.8026   18.7027   19.1863 N   0  0  0  0  0  0  0  0  0  0  0  0
    2.2125   19.8703   19.0409 C   0  0  0  0  0  0  0  0  0  0  0  0
    3.1005   21.1666   19.7487 S   0  0  0  0  0  0  0  0  0  0  0  0
    7.2054   21.4683   22.0389 C   0  0  0  0  0  0  0  0  0  0  0  0
    6.1421   21.6598   21.1964 C   0  0  0  0  0  0  0  0  0  0  0  0
    5.5327   20.3856   21.1100 C   0  0  0  0  0  0  0  0  0  0  0  0
    6.1896   19.4865   21.8557 N   0  0  0  0  0  0  0  0  0  0  0  0
    7.2404   20.1741   22.4367 O   0  0  0  0  0  0  0  0  0  0  0  0
   -0.1929   19.3783   18.8743 C   0  0  0  0  0  0  0  0  0  0  0  0
   -0.3354   17.9099   18.5100 C   0  0  0  0  0  0  0  0  0  0  0  0
   -0.0354   16.9062   19.4308 C   0  0  0  0  0  0  0  0  0  0  0  0
   -0.2081   15.5805   19.0514 C   0  0  0  0  0  0  0  0  0  0  0  0
   -0.6207   15.2828   17.7602 C   0  0  0  0  0  0  0  0  0  0  0  0
   -0.8773   16.3333   16.9016 C   0  0  0  0  0  0  0  0  0  0  0  0
   -0.7500   17.6328   17.2470 N   0  0  0  0  0  0  0  0  0  0  0  0
    0.0187   14.5022   19.8690 O   0  0  0  0  0  0  0  0  0  0  0  0
    0.7112   14.7242   21.1174 C   0  0  0  0  0  0  0  0  0  0  0  0
    1.6536   13.5971   21.6220 C   0  0  0  0  0  0  0  0  0  0  0  0
    2.6310   14.6994   22.0661 C   0  0  0  0  0  0  0  0  0  0  0  0
    1.9829   15.6055   21.0037 C   0  0  0  0  0  0  0  0  0  0  0  0
  8  9  2  0  0  0
  9 10  1  0  0  0
 10  3  1  0  0  0
  3  4  2  0  0  0
  4  5  1  0  0  0
  5  6  2  0  0  0
  6  1  1  0  0  0
  1 13  1  0  0  0
 13 14  1  0  0  0
 14 15  2  0  0  0
 15 16  1  0  0  0
 16 20  1  0  0  0
 20 21  1  0  0  0
 21 22  1  0  0  0
 22 23  1  0  0  0
 23 24  1  0  0  0
 16 17  2  0  0  0
 17 18  1  0  0  0
 18 19  2  0  0  0
  6  7  1  0  0  0
 10 11  2  0  0  0
 11 12  1  0  0  0
 12  8  1  0  0  0
  7  3  1  0  0  0
 19 14  1  0  0  0
 24 21  1  0  0  0
  1  2  1  0  0  0
M  END
> <minimizedAffinity>
-8.64300

$$$$
OCNT-2312288


 24 27  0  0  0  0  0  0  0  0999 V2000
    4.9801   17.6832   22.3226 N   0  0  0  0  0  0  0  0  0  0  0  0
    3.7962   17.1431   22.7322 C   0  0  0  0  0  0  0  0  0  0  0  0
    3.6855   15.9810   21.9970 C   0  0  0  0  0  0  0  0  0  0  0  0
    4.7824   15.8655   21.1814 N   0  0  0  0  0  0  0  0  0  0  0  0
    5.5706   16.9100   21.3929 N   0  0  0  0  0  0  0  0  0  0  0  0
    5.6322   18.8862   22.8068 C   0  0  0  0  0  0  0  0  0  0  0  0
    5.5179   22.0512   19.8783 C   0  0  0  0  0  0  0  0  0  0  0  0
    6.6161   21.9251   20.7265 C   0  0  0  0  0  0  0  0  0  0  0  0
    6.6528   20.9027   21.6752 C   0  0  0  0  0  0  0  0  0  0  0  0
    5.5891   19.9934   21.7837 C   0  0  0  0  0  0  0  0  0  0  0  0
    4.4890   20.1304   20.9243 C   0  0  0  0  0  0  0  0  0  0  0  0
    4.4554   21.1549   19.9767 C   0  0  0  0  0  0  0  0  0  0  0  0
    2.6212   14.9496   21.9795 C   0  0  0  0  0  0  0  0  0  0  0  0
    1.6265   15.2430   20.9633 N   0  0  0  0  0  0  0  0  0  0  0  0
    0.6759   14.3778   20.5046 C   0  0  0  0  0  0  0  0  0  0  0  0
   -0.0669   14.9362   19.5764 N   0  0  0  0  0  0  0  0  0  0  0  0
    0.4270   16.2148   19.4173 C   0  0  0  0  0  0  0  0  0  0  0  0
    1.4893   16.4191   20.2744 C   0  0  0  0  0  0  0  0  0  0  0  0
   -0.1310   17.1712   18.4710 C   0  0  0  0  0  0  0  0  0  0  0  0
   -1.4888   17.1728   18.1199 C   0  0  0  0  0  0  0  0  0  0  0  0
   -1.9889   18.1063   17.2058 C   0  0  0  0  0  0  0  0  0  0  0  0
   -1.1389   19.0489   16.6318 C   0  0  0  0  0  0  0  0  0  0  0  0
    0.2115   19.0611   16.9712 C   0  0  0  0  0  0  0  0  0  0  0  0
    0.7104   18.1287   17.8849 C   0  0  0  0  0  0  0  0  0  0  0  0
  7  8  2  0  0  0
  8  9  1  0  0  0
  9 10  2  0  0  0
 10  6  1  0  0  0
  6  1  1  0  0  0
  1  2  1  0  0  0
  2  3  2  0  0  0
  3 13  1  0  0  0
 13 14  1  0  0  0
 14 15  1  0  0  0
 15 16  2  0  0  0
 16 17  1  0  0  0
 17 19  1  0  0  0
 19 20  2  0  0  0
 20 21  1  0  0  0
 21 22  2  0  0  0
 22 23  1  0  0  0
 23 24  2  0  0  0
 17 18  2  0  0  0
  3  4  1  0  0  0
  4  5  2  0  0  0
 10 11  1  0  0  0
 11 12  2  0  0  0
 12  7  1  0  0  0
  5  1  1  0  0  0
 18 14  1  0  0  0
 24 19  1  0  0  0
M  END
> <minimizedAffinity>
-9.09707

$$$$
OCNT-2312293


 28 31  0  0  0  0  0  0  0  0999 V2000
    3.0868   15.1971   21.9853 O   0  0  0  0  0  0  0  0  0  0  0  0
    2.9820   16.2206   21.3028 C   0  0  0  0  0  0  0  0  0  0  0  0
    2.0165   16.4110   20.3334 N   0  0  0  0  0  0  0  0  0  0  0  0
    1.9964   17.2850   19.8082 H   0  0  0  0  0  0  0  0  0  0  0  0
    1.0275   15.5100   19.9753 C   0  0  0  0  0  0  0  0  0  0  0  0
    0.8160   14.2285   20.4167 C   0  0  0  0  0  0  0  0  0  0  0  0
   -0.2877   13.7755   19.7565 N   0  0  0  0  0  0  0  0  0  0  0  0
   -0.8189   14.6722   18.9059 N   0  0  0  0  0  0  0  0  0  0  0  0
   -0.0171   15.7397   19.0363 C   0  0  0  0  0  0  0  0  0  0  0  0
   -0.7321   12.8666   19.8379 H   0  0  0  0  0  0  0  0  0  0  0  0
   -0.2034   17.0975   18.2452 C   0  0  0  0  0  0  0  0  0  0  0  0
    0.8042   17.9433   18.1025 N   0  0  0  0  0  0  0  0  0  0  0  0
    0.3804   19.0453   17.3855 C   0  0  0  0  0  0  0  0  0  0  0  0
   -0.9383   19.0250   16.9860 C   0  0  0  0  0  0  0  0  0  0  0  0
   -1.6846   17.5785   17.5249 S   0  0  0  0  0  0  0  0  0  0  0  0
    3.9546   17.4148   21.4687 C   0  0  0  0  0  0  0  0  0  0  0  0
    5.4391   17.1488   21.8020 C   0  0  0  0  0  0  0  0  0  0  0  0
    5.4372   18.4404   22.6982 C   0  0  0  0  0  0  0  0  0  0  0  0
    6.0715   18.2235   23.9834 O   0  0  0  0  0  0  0  0  0  0  0  0
    3.8809   18.2578   22.7604 C   0  0  0  0  0  0  0  0  0  0  0  0
    5.9762   19.0725   24.4495 H   0  0  0  0  0  0  0  0  0  0  0  0
    6.0344   19.7632   21.9971 C   0  0  0  0  0  0  0  0  0  0  0  0
    7.3700   20.1918   22.1435 C   0  0  0  0  0  0  0  0  0  0  0  0
    7.8587   21.3404   21.5095 C   0  0  0  0  0  0  0  0  0  0  0  0
    7.0229   22.0967   20.6947 C   0  0  0  0  0  0  0  0  0  0  0  0
    5.7053   21.6965   20.5143 C   0  0  0  0  0  0  0  0  0  0  0  0
    4.6630   22.6146   19.4993 Cl  0  0  0  0  0  0  0  0  0  0  0  0
    5.2226   20.5503   21.1496 C   0  0  0  0  0  0  0  0  0  0  0  0
  1  2  2  0  0  0
  2  3  1  0  0  0
  3  5  1  0  0  0
  5  6  2  0  0  0
  6  7  1  0  0  0
  7  8  1  0  0  0
  8  9  2  0  0  0
  9 11  1  0  0  0
 11 12  2  0  0  0
 12 13  1  0  0  0
 13 14  2  0  0  0
 14 15  1  0  0  0
  2 16  1  0  0  0
 16 17  1  0  0  0
 17 18  1  0  0  0
 18 19  1  0  0  0
 18 22  1  0  0  0
 22 23  2  0  0  0
 23 24  1  0  0  0
 24 25  2  0  0  0
 25 26  1  0  0  0
 26 27  1  0  0  0
 26 28  2  0  0  0
 18 20  1  0  0  0
  9  5  1  0  0  0
 15 11  1  0  0  0
 20 16  1  0  0  0
 28 22  1  0  0  0
  3  4  1  0  0  0
  7 10  1  0  0  0
 19 21  1  0  0  0
M  END
> <minimizedAffinity>
-7.54132

$$$$
OCNT-2312299


 29 31  0  0  0  0  0  0  0  0999 V2000
    3.9402   17.3343   20.9274 C   0  0  0  0  0  0  0  0  0  0  0  0
    5.1115   16.9855   20.8024 O   0  0  0  0  0  0  0  0  0  0  0  0
    3.0212   16.5622   21.6187 N   0  0  0  0  0  0  0  0  0  0  0  0
    2.0436   16.8148   21.5698 H   0  0  0  0  0  0  0  0  0  0  0  0
    0.7813   19.9033   18.4064 N   0  0  0  0  0  0  0  0  0  0  0  0
    1.8928   19.6849   19.1284 C   0  0  0  0  0  0  0  0  0  0  0  0
    2.2174   18.5090   19.5915 N   0  0  0  0  0  0  0  0  0  0  0  0
    3.4178   18.5651   20.3090 C   0  0  0  0  0  0  0  0  0  0  0  0
    3.9925   19.8321   20.3372 C   0  0  0  0  0  0  0  0  0  0  0  0
    2.9926   20.9427   19.4830 S   0  0  0  0  0  0  0  0  0  0  0  0
    0.3677   19.0628   18.0155 H   0  0  0  0  0  0  0  0  0  0  0  0
    0.7991   20.6805   17.7576 H   0  0  0  0  0  0  0  0  0  0  0  0
    5.2514   20.3152   20.8993 C   0  0  0  0  0  0  0  0  0  0  0  0
    5.9833   21.3072   20.2345 C   0  0  0  0  0  0  0  0  0  0  0  0
    7.1976   21.7579   20.7565 C   0  0  0  0  0  0  0  0  0  0  0  0
    7.6901   21.2192   21.9437 C   0  0  0  0  0  0  0  0  0  0  0  0
    6.9680   20.2335   22.6143 C   0  0  0  0  0  0  0  0  0  0  0  0
    5.7523   19.7831   22.0958 C   0  0  0  0  0  0  0  0  0  0  0  0
    3.3656   15.2500   22.1247 C   0  0  0  0  0  0  0  0  0  0  0  0
    2.3707   14.1623   21.7326 C   0  0  0  0  0  0  0  0  0  0  0  0
    0.9433   14.6915   21.6248 C   0  0  0  0  0  0  0  0  0  0  0  0
    0.2499   14.0625   20.5460 O   0  0  0  0  0  0  0  0  0  0  0  0
   -0.1244   14.8176   19.4710 C   0  0  0  0  0  0  0  0  0  0  0  0
   -0.4966   14.3400   18.2123 C   0  0  0  0  0  0  0  0  0  0  0  0
   -0.8631   15.2363   17.2030 C   0  0  0  0  0  0  0  0  0  0  0  0
   -0.8593   16.6026   17.4575 C   0  0  0  0  0  0  0  0  0  0  0  0
   -1.2111   17.4558   16.4871 F   0  0  0  0  0  0  0  0  0  0  0  0
   -0.4988   17.0927   18.7047 C   0  0  0  0  0  0  0  0  0  0  0  0
   -0.1336   16.1971   19.7108 C   0  0  0  0  0  0  0  0  0  0  0  0
  5  6  1  0  0  0
  6  7  2  0  0  0
  7  8  1  0  0  0
  8  1  1  0  0  0
  1  2  2  0  0  0
  1  3  1  0  0  0
  3 19  1  0  0  0
 19 20  1  0  0  0
 20 21  1  0  0  0
 21 22  1  0  0  0
 22 23  1  0  0  0
 23 24  1  0  0  0
 24 25  2  0  0  0
 25 26  1  0  0  0
 26 27  1  0  0  0
 26 28  2  0  0  0
 28 29  1  0  0  0
  8  9  2  0  0  0
  9 13  1  0  0  0
 13 14  2  0  0  0
 14 15  1  0  0  0
 15 16  2  0  0  0
 16 17  1  0  0  0
 17 18  2  0  0  0
  9 10  1  0  0  0
 10  6  1  0  0  0
 29 23  2  0  0  0
 18 13  1  0  0  0
  5 11  1  0  0  0
  5 12  1  0  0  0
  3  4  1  0  0  0
M  END
> <minimizedAffinity>
-9.70284

$$$$
OCNT-2312303


 25 27  0  0  0  0  0  0  0  0999 V2000
    2.7510   15.7755   22.0258 N   0  0  0  0  0  0  0  0  0  0  0  0
    2.4476   16.2116   22.8933 H   0  0  0  0  0  0  0  0  0  0  0  0
   -1.3010   15.4532   16.9327 C   0  0  0  0  0  0  0  0  0  0  0  0
   -0.6854   16.5948   17.5924 N   0  0  0  0  0  0  0  0  0  0  0  0
   -0.9399   17.8676   17.0843 C   0  0  0  0  0  0  0  0  0  0  0  0
   -1.6071   18.0783   16.0703 O   0  0  0  0  0  0  0  0  0  0  0  0
   -0.4416   19.0276   17.9135 C   0  0  0  0  0  0  0  0  0  0  0  0
    0.9386   18.7542   18.4666 C   0  0  0  0  0  0  0  0  0  0  0  0
    0.9436   17.4444   19.2000 C   0  0  0  0  0  0  0  0  0  0  0  0
    1.8055   17.2563   20.2970 C   0  0  0  0  0  0  0  0  0  0  0  0
    1.8710   16.0349   20.9728 C   0  0  0  0  0  0  0  0  0  0  0  0
    1.1112   14.9771   20.4619 C   0  0  0  0  0  0  0  0  0  0  0  0
    0.2617   15.1468   19.3607 C   0  0  0  0  0  0  0  0  0  0  0  0
    0.1585   16.3861   18.7239 C   0  0  0  0  0  0  0  0  0  0  0  0
    4.1864   15.9096   21.8182 C   0  0  0  0  0  0  0  0  0  0  0  0
    4.5248   17.3711   21.6341 C   0  0  0  0  0  0  0  0  0  0  0  0
    4.8692   18.1626   22.7392 C   0  0  0  0  0  0  0  0  0  0  0  0
    5.1763   19.5186   22.5830 C   0  0  0  0  0  0  0  0  0  0  0  0
    5.1303   20.1048   21.3181 C   0  0  0  0  0  0  0  0  0  0  0  0
    4.7928   19.3185   20.2135 C   0  0  0  0  0  0  0  0  0  0  0  0
    4.4852   17.9644   20.3672 C   0  0  0  0  0  0  0  0  0  0  0  0
    5.4076   21.4107   21.0263 O   0  0  0  0  0  0  0  0  0  0  0  0
    6.7644   21.8057   21.1321 C   0  0  0  0  0  0  0  0  0  0  0  0
    7.1145   21.8570   22.4411 F   0  0  0  0  0  0  0  0  0  0  0  0
    7.5159   20.8255   20.5689 F   0  0  0  0  0  0  0  0  0  0  0  0
  3  4  1  0  0  0
  4  5  1  0  0  0
  5  6  2  0  0  0
  5  7  1  0  0  0
  7  8  1  0  0  0
  8  9  1  0  0  0
  9 10  1  0  0  0
 10 11  2  0  0  0
 11  1  1  0  0  0
  1 15  1  0  0  0
 15 16  1  0  0  0
 16 17  1  0  0  0
 17 18  2  0  0  0
 18 19  1  0  0  0
 19 22  1  0  0  0
 22 23  1  0  0  0
 23 24  1  0  0  0
 23 25  1  0  0  0
 19 20  2  0  0  0
 20 21  1  0  0  0
 11 12  1  0  0  0
 12 13  2  0  0  0
 13 14  1  0  0  0
 14  4  1  0  0  0
 14  9  2  0  0  0
 21 16  2  0  0  0
  1  2  1  0  0  0
M  END
> <minimizedAffinity>
-10.16348

$$$$
OCNT-2312308


 27 30  0  0  0  0  0  0  0  0999 V2000
    2.8371   16.6630   21.0906 C   0  0  0  0  0  0  0  0  0  0  0  0
    3.4335   16.9731   22.1285 O   0  0  0  0  0  0  0  0  0  0  0  0
    1.7435   15.8130   21.0632 N   0  0  0  0  0  0  0  0  0  0  0  0
    1.2472   15.3251   22.2551 N   0  0  0  0  0  0  0  0  0  0  0  0
    0.3415   14.4409   21.9682 C   0  0  0  0  0  0  0  0  0  0  0  0
    0.1852   14.1460   20.5027 C   0  0  0  0  0  0  0  0  0  0  0  0
    1.0394   15.2523   19.9076 C   0  0  0  0  0  0  0  0  0  0  0  0
   -0.4408   13.7338   22.9576 C   0  0  0  0  0  0  0  0  0  0  0  0
   -0.8250   12.4046   22.9690 C   0  0  0  0  0  0  0  0  0  0  0  0
   -1.6062   12.0682   24.1138 C   0  0  0  0  0  0  0  0  0  0  0  0
   -1.7890   13.1486   24.9452 C   0  0  0  0  0  0  0  0  0  0  0  0
   -1.0282   14.5549   24.3435 S   0  0  0  0  0  0  0  0  0  0  0  0
    0.2024   16.2906   19.2320 C   0  0  0  0  0  0  0  0  0  0  0  0
   -0.6336   16.2546   18.1333 C   0  0  0  0  0  0  0  0  0  0  0  0
   -1.1542   17.5626   17.9822 C   0  0  0  0  0  0  0  0  0  0  0  0
   -0.6110   18.3114   18.9987 C   0  0  0  0  0  0  0  0  0  0  0  0
    0.2055   17.5463   19.7659 O   0  0  0  0  0  0  0  0  0  0  0  0
    3.3283   17.2287   19.7559 C   0  0  0  0  0  0  0  0  0  0  0  0
    4.4550   18.0907   19.9433 O   0  0  0  0  0  0  0  0  0  0  0  0
    3.0864   19.8977   19.6019 O   0  0  0  0  0  0  0  0  0  0  0  0
    4.1289   19.4046   20.0052 C   0  0  0  0  0  0  0  0  0  0  0  0
    5.2022   20.1763   20.6760 C   0  0  0  0  0  0  0  0  0  0  0  0
    5.8432   19.5994   21.7727 C   0  0  0  0  0  0  0  0  0  0  0  0
    6.8428   20.3239   22.3937 C   0  0  0  0  0  0  0  0  0  0  0  0
    7.2270   21.5568   22.0011 N   0  0  0  0  0  0  0  0  0  0  0  0
    6.5795   22.0978   20.9469 C   0  0  0  0  0  0  0  0  0  0  0  0
    5.5703   21.4546   20.2545 C   0  0  0  0  0  0  0  0  0  0  0  0
 20 21  2  0  0  0
 21 19  1  0  0  0
 19 18  1  0  0  0
 18  1  1  0  0  0
  1  2  2  0  0  0
  1  3  1  0  0  0
  3  4  1  0  0  0
  4  5  2  0  0  0
  5  8  1  0  0  0
  8  9  2  0  0  0
  9 10  1  0  0  0
 10 11  2  0  0  0
 11 12  1  0  0  0
  5  6  1  0  0  0
  6  7  1  0  0  0
  7 13  1  0  0  0
 13 14  2  0  0  0
 14 15  1  0  0  0
 15 16  2  0  0  0
 16 17  1  0  0  0
 21 22  1  0  0  0
 22 23  2  0  0  0
 23 24  1  0  0  0
 24 25  2  0  0  0
 25 26  1  0  0  0
 26 27  2  0  0  0
  7  3  1  0  0  0
 17 13  1  0  0  0
 27 22  1  0  0  0
 12  8  1  0  0  0
M  END
> <minimizedAffinity>
-6.52325

$$$$
OCNT-2312312


 29 32  0  0  0  0  0  0  0  0999 V2000
    4.7893   17.7988   21.6678 C   0  0  0  0  0  0  0  0  0  0  0  0
    5.4323   16.5942   20.9339 C   0  0  0  0  0  0  0  0  0  0  0  0
    4.3929   15.4895   21.0179 C   0  0  0  0  0  0  0  0  0  0  0  0
    3.8936   15.6682   22.3811 N   0  0  0  0  0  0  0  0  0  0  0  0
    3.6778   17.1213   22.5200 C   0  0  0  0  0  0  0  0  0  0  0  0
    4.1358   18.8818   20.7858 C   0  0  0  0  0  0  0  0  0  0  0  0
    4.7153   20.1676   20.7427 C   0  0  0  0  0  0  0  0  0  0  0  0
    4.1651   21.1880   19.9637 C   0  0  0  0  0  0  0  0  0  0  0  0
    3.0160   20.9488   19.2166 C   0  0  0  0  0  0  0  0  0  0  0  0
    2.4174   19.6929   19.2550 C   0  0  0  0  0  0  0  0  0  0  0  0
    2.9658   18.6702   20.0391 C   0  0  0  0  0  0  0  0  0  0  0  0
    5.6243   18.4220   23.9080 N   0  0  0  0  0  0  0  0  0  0  0  0
    5.8771   18.4423   22.5585 C   0  0  0  0  0  0  0  0  0  0  0  0
    6.9309   18.9225   22.1516 O   0  0  0  0  0  0  0  0  0  0  0  0
    6.4038   18.7064   24.4862 H   0  0  0  0  0  0  0  0  0  0  0  0
    5.0282   17.6934   24.2838 H   0  0  0  0  0  0  0  0  0  0  0  0
    2.6711   14.9046   22.6552 C   0  0  0  0  0  0  0  0  0  0  0  0
    1.7655   14.9366   21.4704 C   0  0  0  0  0  0  0  0  0  0  0  0
    1.1890   13.8856   20.7940 C   0  0  0  0  0  0  0  0  0  0  0  0
    0.4373   14.3917   19.7798 O   0  0  0  0  0  0  0  0  0  0  0  0
    0.5903   15.7501   19.8896 C   0  0  0  0  0  0  0  0  0  0  0  0
    1.3769   16.1247   20.8822 N   0  0  0  0  0  0  0  0  0  0  0  0
   -0.1299   16.5740   18.9208 C   0  0  0  0  0  0  0  0  0  0  0  0
   -0.3846   17.9248   19.2118 C   0  0  0  0  0  0  0  0  0  0  0  0
   -1.0743   18.7363   18.3052 C   0  0  0  0  0  0  0  0  0  0  0  0
   -1.5164   18.2027   17.0978 C   0  0  0  0  0  0  0  0  0  0  0  0
   -2.3646   19.1985   15.9807 Cl  0  0  0  0  0  0  0  0  0  0  0  0
   -1.2773   16.8643   16.7905 C   0  0  0  0  0  0  0  0  0  0  0  0
   -0.5861   16.0545   17.6981 C   0  0  0  0  0  0  0  0  0  0  0  0
 12 13  1  0  0  0
 13 14  2  0  0  0
 13  1  1  0  0  0
  1  6  1  0  0  0
  6  7  2  0  0  0
  7  8  1  0  0  0
  8  9  2  0  0  0
  9 10  1  0  0  0
 10 11  2  0  0  0
  1  2  1  0  0  0
  2  3  1  0  0  0
  3  4  1  0  0  0
  4 17  1  0  0  0
 17 18  1  0  0  0
 18 19  2  0  0  0
 19 20  1  0  0  0
 20 21  1  0  0  0
 21 23  1  0  0  0
 23 24  1  0  0  0
 24 25  2  0  0  0
 25 26  1  0  0  0
 26 27  1  0  0  0
 26 28  2  0  0  0
 28 29  1  0  0  0
 21 22  2  0  0  0
  4  5  1  0  0  0
  5  1  1  0  0  0
 11  6  1  0  0  0
 22 18  1  0  0  0
 29 23  2  0  0  0
 12 15  1  0  0  0
 12 16  1  0  0  0
M  END
> <minimizedAffinity>
-6.33302

$$$$
OCNT-2312316


 27 30  0  0  0  0  0  0  0  0999 V2000
    3.9759   22.5187   19.1987 C   0  0  0  0  0  0  0  0  0  0  0  0
    4.4816   21.3988   20.0585 C   0  0  0  0  0  0  0  0  0  0  0  0
    5.6164   21.5602   20.8443 C   0  0  0  0  0  0  0  0  0  0  0  0
    6.1037   20.4963   21.6189 C   0  0  0  0  0  0  0  0  0  0  0  0
    7.3336   20.7118   22.4638 C   0  0  0  0  0  0  0  0  0  0  0  0
    5.4705   19.2466   21.6129 C   0  0  0  0  0  0  0  0  0  0  0  0
    5.9847   18.2650   22.3762 N   0  0  0  0  0  0  0  0  0  0  0  0
    5.3852   17.0582   22.3732 C   0  0  0  0  0  0  0  0  0  0  0  0
    4.2624   16.7591   21.6299 C   0  0  0  0  0  0  0  0  0  0  0  0
    3.6980   17.7615   20.8214 C   0  0  0  0  0  0  0  0  0  0  0  0
    4.3182   19.0515   20.8079 C   0  0  0  0  0  0  0  0  0  0  0  0
    3.8546   20.1495   20.0389 C   0  0  0  0  0  0  0  0  0  0  0  0
    2.5556   17.4262   20.0880 N   0  0  0  0  0  0  0  0  0  0  0  0
    1.5917   16.5038   20.6862 C   0  0  0  0  0  0  0  0  0  0  0  0
    0.4295   16.5404   19.6961 C   0  0  0  0  0  0  0  0  0  0  0  0
    0.3661   18.0200   19.3020 C   0  0  0  0  0  0  0  0  0  0  0  0
   -0.3796   18.7153   20.3091 O   0  0  0  0  0  0  0  0  0  0  0  0
    1.8511   18.4806   19.3300 C   0  0  0  0  0  0  0  0  0  0  0  0
   -1.2964   18.3934   20.2558 H   0  0  0  0  0  0  0  0  0  0  0  0
   -0.3121   18.2847   17.9988 C   0  0  0  0  0  0  0  0  0  0  0  0
    0.1344   18.2529   16.6912 C   0  0  0  0  0  0  0  0  0  0  0  0
   -0.9873   18.5787   15.9106 C   0  0  0  0  0  0  0  0  0  0  0  0
   -2.0719   18.7950   16.6542 N   0  0  0  0  0  0  0  0  0  0  0  0
   -1.6488   18.5901   17.9105 N   0  0  0  0  0  0  0  0  0  0  0  0
   -2.3295   18.6759   18.6605 H   0  0  0  0  0  0  0  0  0  0  0  0
    3.7122   15.4403   21.7064 C   0  0  0  0  0  0  0  0  0  0  0  0
    3.2851   14.3628   21.7864 N   0  0  0  0  0  0  0  0  0  0  0  0
  1  2  1  0  0  0
  2  3  2  0  0  0
  3  4  1  0  0  0
  4  5  1  0  0  0
  4  6  2  0  0  0
  6  7  1  0  0  0
  7  8  2  0  0  0
  8  9  1  0  0  0
  9 26  1  0  0  0
 26 27  3  0  0  0
  9 10  2  0  0  0
 10 13  1  0  0  0
 13 14  1  0  0  0
 14 15  1  0  0  0
 15 16  1  0  0  0
 16 17  1  0  0  0
 16 20  1  0  0  0
 20 21  2  0  0  0
 21 22  1  0  0  0
 22 23  2  0  0  0
 23 24  1  0  0  0
 16 18  1  0  0  0
 10 11  1  0  0  0
 11 12  2  0  0  0
 12  2  1  0  0  0
 11  6  1  0  0  0
 18 13  1  0  0  0
 24 20  1  0  0  0
 17 19  1  0  0  0
 24 25  1  0  0  0
M  END
> <minimizedAffinity>
-8.81409

$$$$
OCNT-2312317


 26 29  0  0  0  0  0  0  0  0999 V2000
    1.0395   20.0433   19.2598 O   0  0  0  0  0  0  0  0  0  0  0  0
    1.5664   18.9359   19.3212 C   0  0  0  0  0  0  0  0  0  0  0  0
    2.8459   18.7565   19.7819 N   0  0  0  0  0  0  0  0  0  0  0  0
    3.2453   17.8189   19.7090 H   0  0  0  0  0  0  0  0  0  0  0  0
    0.8077   17.7195   18.8827 C   0  0  0  0  0  0  0  0  0  0  0  0
    0.0486   17.8547   17.7019 C   0  0  0  0  0  0  0  0  0  0  0  0
   -0.6881   16.7856   17.2112 C   0  0  0  0  0  0  0  0  0  0  0  0
   -0.6615   15.5831   17.8981 C   0  0  0  0  0  0  0  0  0  0  0  0
   -1.3776   14.5568   17.4128 F   0  0  0  0  0  0  0  0  0  0  0  0
    0.0887   15.4228   19.0723 C   0  0  0  0  0  0  0  0  0  0  0  0
    0.1048   14.1941   19.7512 C   0  0  0  0  0  0  0  0  0  0  0  0
    0.8521   14.0448   20.9095 C   0  0  0  0  0  0  0  0  0  0  0  0
    1.5637   15.1358   21.3550 C   0  0  0  0  0  0  0  0  0  0  0  0
    1.5690   16.3352   20.7286 N   0  0  0  0  0  0  0  0  0  0  0  0
    0.8433   16.5005   19.5900 C   0  0  0  0  0  0  0  0  0  0  0  0
    3.7331   19.8472   20.1322 C   0  0  0  0  0  0  0  0  0  0  0  0
    4.7749   19.3336   21.0980 C   0  0  0  0  0  0  0  0  0  0  0  0
    4.8465   18.0748   21.4459 N   0  0  0  0  0  0  0  0  0  0  0  0
    5.9345   18.0261   22.2696 N   0  0  0  0  0  0  0  0  0  0  0  0
    6.5358   19.2768   22.3654 C   0  0  0  0  0  0  0  0  0  0  0  0
    7.5685   19.5219   22.9672 O   0  0  0  0  0  0  0  0  0  0  0  0
    5.7346   20.1229   21.6330 N   0  0  0  0  0  0  0  0  0  0  0  0
    6.2991   17.1654   22.6549 H   0  0  0  0  0  0  0  0  0  0  0  0
    5.9894   21.5020   21.3896 C   0  0  0  0  0  0  0  0  0  0  0  0
    5.8143   22.1233   20.0257 C   0  0  0  0  0  0  0  0  0  0  0  0
    7.1884   21.9564   20.5948 C   0  0  0  0  0  0  0  0  0  0  0  0
  1  2  2  0  0  0
  2  3  1  0  0  0
  3 16  1  0  0  0
 16 17  1  0  0  0
 17 18  2  0  0  0
 18 19  1  0  0  0
 19 20  1  0  0  0
 20 21  2  0  0  0
 20 22  1  0  0  0
 22 24  1  0  0  0
 24 25  1  0  0  0
 25 26  1  0  0  0
  2  5  1  0  0  0
  5  6  1  0  0  0
  6  7  2  0  0  0
  7  8  1  0  0  0
  8  9  1  0  0  0
  8 10  2  0  0  0
 10 11  1  0  0  0
 11 12  2  0  0  0
 12 13  1  0  0  0
 13 14  2  0  0  0
 14 15  1  0  0  0
 22 17  1  0  0  0
 26 24  1  0  0  0
 15  5  2  0  0  0
 15 10  1  0  0  0
  3  4  1  0  0  0
 19 23  1  0  0  0
M  END
> <minimizedAffinity>
-10.83982

$$$$
OCNT-2312333


 25 28  0  0  0  0  0  0  0  0999 V2000
    2.9363   16.2717   21.2309 N   0  0  0  0  0  0  0  0  0  0  0  0
    2.9493   14.9287   21.5535 C   0  0  0  0  0  0  0  0  0  0  0  0
    3.9302   14.3304   21.9845 O   0  0  0  0  0  0  0  0  0  0  0  0
    2.1596   16.6085   20.6687 H   0  0  0  0  0  0  0  0  0  0  0  0
    4.2215   18.3435   21.9788 C   0  0  0  0  0  0  0  0  0  0  0  0
    5.0348   17.1516   22.4003 C   0  0  0  0  0  0  0  0  0  0  0  0
    4.1376   17.0481   21.2028 C   0  0  0  0  0  0  0  0  0  0  0  0
    7.4847   21.9026   20.5430 C   0  0  0  0  0  0  0  0  0  0  0  0
    6.3135   21.0738   20.6895 N   0  0  0  0  0  0  0  0  0  0  0  0
    6.1663   19.9990   21.5183 C   0  0  0  0  0  0  0  0  0  0  0  0
    4.8889   19.5511   21.3002 C   0  0  0  0  0  0  0  0  0  0  0  0
    4.3438   20.4003   20.3276 C   0  0  0  0  0  0  0  0  0  0  0  0
    5.2154   21.3424   19.9534 N   0  0  0  0  0  0  0  0  0  0  0  0
    1.6347   14.2263   21.2878 C   0  0  0  0  0  0  0  0  0  0  0  0
    0.4883   15.2264   21.1364 C   0  0  0  0  0  0  0  0  0  0  0  0
    0.0181   15.3885   19.7019 C   0  0  0  0  0  0  0  0  0  0  0  0
   -0.4264   14.2340   19.0302 C   0  0  0  0  0  0  0  0  0  0  0  0
   -0.8076   14.2869   17.6954 C   0  0  0  0  0  0  0  0  0  0  0  0
   -0.7492   15.4944   17.0072 C   0  0  0  0  0  0  0  0  0  0  0  0
   -0.3186   16.6666   17.6449 C   0  0  0  0  0  0  0  0  0  0  0  0
   -0.2670   17.8743   16.9293 C   0  0  0  0  0  0  0  0  0  0  0  0
    0.1550   19.0536   17.5390 C   0  0  0  0  0  0  0  0  0  0  0  0
    0.5260   19.0411   18.8758 C   0  0  0  0  0  0  0  0  0  0  0  0
    0.4806   17.8476   19.6011 C   0  0  0  0  0  0  0  0  0  0  0  0
    0.0658   16.6319   19.0102 C   0  0  0  0  0  0  0  0  0  0  0  0
  8  9  1  0  0  0
  9 10  1  0  0  0
 10 11  2  0  0  0
 11  5  1  0  0  0
  5  6  1  0  0  0
  6  7  1  0  0  0
  7  1  1  0  0  0
  1  2  1  0  0  0
  2  3  2  0  0  0
  2 14  1  0  0  0
 14 15  1  0  0  0
 15 16  1  0  0  0
 16 17  2  0  0  0
 17 18  1  0  0  0
 18 19  2  0  0  0
 19 20  1  0  0  0
 20 21  2  0  0  0
 21 22  1  0  0  0
 22 23  2  0  0  0
 23 24  1  0  0  0
 24 25  2  0  0  0
 11 12  1  0  0  0
 12 13  2  0  0  0
 13  9  1  0  0  0
  7  5  1  0  0  0
 25 16  1  0  0  0
 25 20  1  0  0  0
  1  4  1  0  0  0
M  END
> <minimizedAffinity>
-10.48929

$$$$
OCNT-2312337


 26 28  0  0  0  0  0  0  0  0999 V2000
    5.4695   16.9537   20.6314 O   0  0  0  0  0  0  0  0  0  0  0  0
    4.8599   17.1952   21.6730 C   0  0  0  0  0  0  0  0  0  0  0  0
    3.7855   16.4224   22.1047 N   0  0  0  0  0  0  0  0  0  0  0  0
    3.1850   16.8538   22.8023 H   0  0  0  0  0  0  0  0  0  0  0  0
    5.2193   18.3751   22.6250 C   0  0  0  0  0  0  0  0  0  0  0  0
    6.2854   18.0089   23.4180 F   0  0  0  0  0  0  0  0  0  0  0  0
    4.2008   18.5845   23.5176 F   0  0  0  0  0  0  0  0  0  0  0  0
    5.5254   19.6206   21.8318 C   0  0  0  0  0  0  0  0  0  0  0  0
    4.5651   20.1689   20.9891 C   0  0  0  0  0  0  0  0  0  0  0  0
    4.7623   21.2792   20.2415 N   0  0  0  0  0  0  0  0  0  0  0  0
    5.9717   21.8715   20.3323 C   0  0  0  0  0  0  0  0  0  0  0  0
    6.9961   21.4047   21.1379 C   0  0  0  0  0  0  0  0  0  0  0  0
    6.7677   20.2613   21.8982 C   0  0  0  0  0  0  0  0  0  0  0  0
    3.2229   15.3879   21.2535 C   0  0  0  0  0  0  0  0  0  0  0  0
    1.7111   15.2594   21.4383 C   0  0  0  0  0  0  0  0  0  0  0  0
    0.9476   15.7364   20.2452 C   0  0  0  0  0  0  0  0  0  0  0  0
    0.0329   15.0032   19.5142 C   0  0  0  0  0  0  0  0  0  0  0  0
   -0.4412   15.7915   18.5016 N   0  0  0  0  0  0  0  0  0  0  0  0
    0.1444   17.0353   18.5523 C   0  0  0  0  0  0  0  0  0  0  0  0
   -0.0277   18.1563   17.7322 C   0  0  0  0  0  0  0  0  0  0  0  0
   -1.1172   18.1290   16.4037 Cl  0  0  0  0  0  0  0  0  0  0  0  0
    0.7104   19.3066   18.0184 C   0  0  0  0  0  0  0  0  0  0  0  0
    1.5944   19.3318   19.0948 C   0  0  0  0  0  0  0  0  0  0  0  0
    1.7587   18.2044   19.9097 C   0  0  0  0  0  0  0  0  0  0  0  0
    1.0220   17.0318   19.6378 C   0  0  0  0  0  0  0  0  0  0  0  0
   -1.1222   15.5138   17.8069 H   0  0  0  0  0  0  0  0  0  0  0  0
  1  2  2  0  0  0
  2  3  1  0  0  0
  3 14  1  0  0  0
 14 15  1  0  0  0
 15 16  1  0  0  0
 16 17  2  0  0  0
 17 18  1  0  0  0
 18 19  1  0  0  0
 19 20  2  0  0  0
 20 21  1  0  0  0
 20 22  1  0  0  0
 22 23  2  0  0  0
 23 24  1  0  0  0
 24 25  2  0  0  0
  2  5  1  0  0  0
  5  6  1  0  0  0
  5  7  1  0  0  0
  5  8  1  0  0  0
  8  9  2  0  0  0
  9 10  1  0  0  0
 10 11  2  0  0  0
 11 12  1  0  0  0
 12 13  2  0  0  0
 25 16  1  0  0  0
 13  8  1  0  0  0
 25 19  1  0  0  0
  3  4  1  0  0  0
 18 26  1  0  0  0
M  END
> <minimizedAffinity>
-10.07103

$$$$
OCNT-2312338


 27 30  0  0  0  0  0  0  0  0999 V2000
    0.8820   20.0539   19.4031 O   0  0  0  0  0  0  0  0  0  0  0  0
    1.9552   19.6302   18.9847 C   0  0  0  0  0  0  0  0  0  0  0  0
    2.0449   18.5278   18.1711 N   0  0  0  0  0  0  0  0  0  0  0  0
    3.1826   20.2192   19.2876 N   0  0  0  0  0  0  0  0  0  0  0  0
    3.1189   21.3989   20.1486 C   0  0  0  0  0  0  0  0  0  0  0  0
    4.3714   22.2639   20.0415 C   0  0  0  0  0  0  0  0  0  0  0  0
    5.6630   21.4628   20.2764 C   0  0  0  0  0  0  0  0  0  0  0  0
    5.6698   20.2748   19.2980 C   0  0  0  0  0  0  0  0  0  0  0  0
    4.4070   19.4208   19.3957 C   0  0  0  0  0  0  0  0  0  0  0  0
    2.7790   18.6082   17.4835 H   0  0  0  0  0  0  0  0  0  0  0  0
    5.8464   21.0252   21.7469 C   0  0  0  0  0  0  0  0  0  0  0  0
    7.2734   20.6208   22.1083 C   0  0  0  0  0  0  0  0  0  0  0  0
    7.0654   19.7423   23.3244 C   0  0  0  0  0  0  0  0  0  0  0  0
    5.8956   18.9482   22.9642 N   0  0  0  0  0  0  0  0  0  0  0  0
    5.0249   19.7886   22.1394 C   0  0  0  0  0  0  0  0  0  0  0  0
    5.4100   18.6138   23.7946 H   0  0  0  0  0  0  0  0  0  0  0  0
    0.8509   17.8242   17.7264 C   0  0  0  0  0  0  0  0  0  0  0  0
   -0.0435   17.3557   18.8946 C   0  0  0  0  0  0  0  0  0  0  0  0
   -1.3575   16.7051   18.4519 C   0  0  0  0  0  0  0  0  0  0  0  0
   -1.0857   15.3132   17.9058 C   0  0  0  0  0  0  0  0  0  0  0  0
   -0.5240   14.4447   18.8944 O   0  0  0  0  0  0  0  0  0  0  0  0
    0.4379   14.9990   19.6946 C   0  0  0  0  0  0  0  0  0  0  0  0
    1.1354   14.1022   20.5055 C   0  0  0  0  0  0  0  0  0  0  0  0
    2.1182   14.5620   21.3812 C   0  0  0  0  0  0  0  0  0  0  0  0
    2.3995   15.9239   21.4541 C   0  0  0  0  0  0  0  0  0  0  0  0
    1.6985   16.8250   20.6513 C   0  0  0  0  0  0  0  0  0  0  0  0
    0.7105   16.3708   19.7621 C   0  0  0  0  0  0  0  0  0  0  0  0
  1  2  2  0  0  0
  2  3  1  0  0  0
  3 17  1  0  0  0
 17 18  1  0  0  0
 18 19  1  0  0  0
 19 20  1  0  0  0
 20 21  1  0  0  0
 21 22  1  0  0  0
 22 23  2  0  0  0
 23 24  1  0  0  0
 24 25  2  0  0  0
 25 26  1  0  0  0
 26 27  2  0  0  0
  2  4  1  0  0  0
  4  5  1  0  0  0
  5  6  1  0  0  0
  6  7  1  0  0  0
  7 11  1  0  0  0
 11 12  1  0  0  0
 12 13  1  0  0  0
 13 14  1  0  0  0
 14 15  1  0  0  0
  7  8  1  0  0  0
  8  9  1  0  0  0
 27 18  1  0  0  0
  9  4  1  0  0  0
 27 22  1  0  0  0
 15 11  1  0  0  0
  3 10  1  0  0  0
 14 16  1  0  0  0
M  END
> <minimizedAffinity>
-6.55590

$$$$
OCNT-2312342


 24 26  0  0  0  0  0  0  0  0999 V2000
    4.7999   15.9857   21.2298 O   0  0  0  0  0  0  0  0  0  0  0  0
    3.7091   16.5355   21.3388 C   0  0  0  0  0  0  0  0  0  0  0  0
    3.5345   17.9090   21.2496 N   0  0  0  0  0  0  0  0  0  0  0  0
    2.6167   18.2364   20.9694 H   0  0  0  0  0  0  0  0  0  0  0  0
    4.5561   18.8877   21.2012 C   0  0  0  0  0  0  0  0  0  0  0  0
    4.4837   19.8237   20.1606 C   0  0  0  0  0  0  0  0  0  0  0  0
    3.4737   19.7469   19.2787 F   0  0  0  0  0  0  0  0  0  0  0  0
    5.4346   20.8257   20.0036 C   0  0  0  0  0  0  0  0  0  0  0  0
    6.4740   20.9074   20.9179 C   0  0  0  0  0  0  0  0  0  0  0  0
    7.3947   21.8699   20.7836 F   0  0  0  0  0  0  0  0  0  0  0  0
    6.5612   20.0205   21.9824 C   0  0  0  0  0  0  0  0  0  0  0  0
    5.5981   19.0222   22.1251 C   0  0  0  0  0  0  0  0  0  0  0  0
    5.6616   18.2652   23.2274 F   0  0  0  0  0  0  0  0  0  0  0  0
    2.4651   15.7983   21.4930 C   0  0  0  0  0  0  0  0  0  0  0  0
    1.4776   15.4969   20.5771 C   0  0  0  0  0  0  0  0  0  0  0  0
    0.4129   14.7579   21.0538 N   0  0  0  0  0  0  0  0  0  0  0  0
    0.5696   14.5106   22.3447 C   0  0  0  0  0  0  0  0  0  0  0  0
    2.0156   15.1640   23.0221 S   0  0  0  0  0  0  0  0  0  0  0  0
   -0.3876   13.7491   23.1725 C   0  0  0  0  0  0  0  0  0  0  0  0
   -0.9861   14.3413   24.2836 C   0  0  0  0  0  0  0  0  0  0  0  0
   -1.8860   13.5983   25.0443 C   0  0  0  0  0  0  0  0  0  0  0  0
   -2.1652   12.2880   24.6778 C   0  0  0  0  0  0  0  0  0  0  0  0
   -1.5307   11.7725   23.5608 C   0  0  0  0  0  0  0  0  0  0  0  0
   -0.6548   12.4693   22.8041 N   0  0  0  0  0  0  0  0  0  0  0  0
  1  2  2  0  0  0
  2  3  1  0  0  0
  3  5  1  0  0  0
  5  6  2  0  0  0
  6  7  1  0  0  0
  6  8  1  0  0  0
  8  9  2  0  0  0
  9 10  1  0  0  0
  9 11  1  0  0  0
 11 12  2  0  0  0
 12 13  1  0  0  0
  2 14  1  0  0  0
 14 15  2  0  0  0
 15 16  1  0  0  0
 16 17  2  0  0  0
 17 19  1  0  0  0
 19 20  2  0  0  0
 20 21  1  0  0  0
 21 22  2  0  0  0
 22 23  1  0  0  0
 23 24  2  0  0  0
 17 18  1  0  0  0
 12  5  1  0  0  0
 18 14  1  0  0  0
 24 19  1  0  0  0
  3  4  1  0  0  0
M  END
> <minimizedAffinity>
-6.78324

$$$$
OCNT-2312352


 27 29  0  0  0  0  0  0  0  0999 V2000
    0.2399   18.1578   15.8840 C   0  0  0  0  0  0  0  0  0  0  0  0
   -0.3834   17.9867   17.2850 C   0  0  0  0  0  0  0  0  0  0  0  0
   -1.8157   18.5577   17.2443 C   0  0  0  0  0  0  0  0  0  0  0  0
    0.4709   18.7226   18.2959 C   0  0  0  0  0  0  0  0  0  0  0  0
    0.2157   19.8613   19.0273 C   0  0  0  0  0  0  0  0  0  0  0  0
    1.3027   20.1319   19.7987 O   0  0  0  0  0  0  0  0  0  0  0  0
    2.1853   19.1282   19.5067 C   0  0  0  0  0  0  0  0  0  0  0  0
    1.7324   18.2631   18.6174 N   0  0  0  0  0  0  0  0  0  0  0  0
    3.4614   19.1444   20.2156 C   0  0  0  0  0  0  0  0  0  0  0  0
    3.7922   18.0816   21.0705 C   0  0  0  0  0  0  0  0  0  0  0  0
    4.9995   18.0766   21.7739 C   0  0  0  0  0  0  0  0  0  0  0  0
    5.8933   19.1353   21.6298 C   0  0  0  0  0  0  0  0  0  0  0  0
    5.5838   20.1953   20.7802 C   0  0  0  0  0  0  0  0  0  0  0  0
    4.3751   20.2001   20.0787 C   0  0  0  0  0  0  0  0  0  0  0  0
   -0.4191   16.4787   17.6695 C   0  0  0  0  0  0  0  0  0  0  0  0
    0.0032   16.1954   19.0342 N   0  0  0  0  0  0  0  0  0  0  0  0
   -0.0018   14.9262   19.5672 C   0  0  0  0  0  0  0  0  0  0  0  0
   -0.3752   13.9411   18.9379 O   0  0  0  0  0  0  0  0  0  0  0  0
    0.3218   16.9753   19.5987 H   0  0  0  0  0  0  0  0  0  0  0  0
    0.4693   14.7674   20.9709 C   0  0  0  0  0  0  0  0  0  0  0  0
   -0.4425   14.2904   21.9246 C   0  0  0  0  0  0  0  0  0  0  0  0
   -0.0430   14.1226   23.2506 C   0  0  0  0  0  0  0  0  0  0  0  0
   -1.1672   13.5409   24.4134 Cl  0  0  0  0  0  0  0  0  0  0  0  0
    1.2621   14.4226   23.6438 C   0  0  0  0  0  0  0  0  0  0  0  0
    2.1735   14.8935   22.7014 C   0  0  0  0  0  0  0  0  0  0  0  0
    1.7743   15.0629   21.3755 C   0  0  0  0  0  0  0  0  0  0  0  0
    2.6855   15.5130   20.5018 F   0  0  0  0  0  0  0  0  0  0  0  0
  1  2  1  0  0  0
  2  3  1  0  0  0
  2 15  1  0  0  0
 15 16  1  0  0  0
 16 17  1  0  0  0
 17 18  2  0  0  0
 17 20  1  0  0  0
 20 21  1  0  0  0
 21 22  2  0  0  0
 22 23  1  0  0  0
 22 24  1  0  0  0
 24 25  2  0  0  0
 25 26  1  0  0  0
 26 27  1  0  0  0
  2  4  1  0  0  0
  4  5  2  0  0  0
  5  6  1  0  0  0
  6  7  1  0  0  0
  7  9  1  0  0  0
  9 10  2  0  0  0
 10 11  1  0  0  0
 11 12  2  0  0  0
 12 13  1  0  0  0
 13 14  2  0  0  0
  7  8  2  0  0  0
 26 20  2  0  0  0
  8  4  1  0  0  0
 14  9  1  0  0  0
 16 19  1  0  0  0
M  END
> <minimizedAffinity>
-8.44417

$$$$
OCNT-2312354


 25 27  0  0  0  0  0  0  0  0999 V2000
    3.5240   14.9127   22.0897 C   0  0  0  0  0  0  0  0  0  0  0  0
    3.5957   16.3074   21.7011 N   0  0  0  0  0  0  0  0  0  0  0  0
    4.7696   16.9115   21.3314 C   0  0  0  0  0  0  0  0  0  0  0  0
    5.8373   16.3040   21.2866 O   0  0  0  0  0  0  0  0  0  0  0  0
    2.7505   16.8772   21.7585 H   0  0  0  0  0  0  0  0  0  0  0  0
    4.6756   18.3635   20.9883 C   0  0  0  0  0  0  0  0  0  0  0  0
    3.9584   18.6993   19.8997 C   0  0  0  0  0  0  0  0  0  0  0  0
    3.8069   20.0712   19.4895 C   0  0  0  0  0  0  0  0  0  0  0  0
    4.3901   21.0459   20.1934 C   0  0  0  0  0  0  0  0  0  0  0  0
    5.1442   20.7622   21.3169 N   0  0  0  0  0  0  0  0  0  0  0  0
    5.7446   21.8722   22.0421 C   0  0  0  0  0  0  0  0  0  0  0  0
    5.3295   19.4558   21.7829 C   0  0  0  0  0  0  0  0  0  0  0  0
    5.9888   19.1838   22.7875 O   0  0  0  0  0  0  0  0  0  0  0  0
    2.0815   14.4089   22.1826 C   0  0  0  0  0  0  0  0  0  0  0  0
    0.2410   16.2156   19.2141 C   0  0  0  0  0  0  0  0  0  0  0  0
   -0.2414   14.9242   19.2334 C   0  0  0  0  0  0  0  0  0  0  0  0
    0.3475   14.1483   20.2762 C   0  0  0  0  0  0  0  0  0  0  0  0
    1.2596   14.8727   21.0165 C   0  0  0  0  0  0  0  0  0  0  0  0
    1.3898   16.4826   20.4486 S   0  0  0  0  0  0  0  0  0  0  0  0
   -2.9226   19.0000   16.4444 C   0  0  0  0  0  0  0  0  0  0  0  0
   -1.6330   18.5165   17.0067 C   0  0  0  0  0  0  0  0  0  0  0  0
   -1.5225   17.5337   17.8731 N   0  0  0  0  0  0  0  0  0  0  0  0
   -0.1913   17.3326   18.1948 C   0  0  0  0  0  0  0  0  0  0  0  0
    0.6953   18.1778   17.5602 C   0  0  0  0  0  0  0  0  0  0  0  0
   -0.1557   19.2545   16.5323 S   0  0  0  0  0  0  0  0  0  0  0  0
 20 21  1  0  0  0
 21 22  2  0  0  0
 22 23  1  0  0  0
 23 15  1  0  0  0
 15 16  2  0  0  0
 16 17  1  0  0  0
 17 18  2  0  0  0
 18 14  1  0  0  0
 14  1  1  0  0  0
  1  2  1  0  0  0
  2  3  1  0  0  0
  3  4  2  0  0  0
  3  6  1  0  0  0
  6  7  2  0  0  0
  7  8  1  0  0  0
  8  9  2  0  0  0
  9 10  1  0  0  0
 10 11  1  0  0  0
 10 12  1  0  0  0
 12 13  2  0  0  0
 18 19  1  0  0  0
 23 24  2  0  0  0
 24 25  1  0  0  0
 25 21  1  0  0  0
 19 15  1  0  0  0
 12  6  1  0  0  0
  2  5  1  0  0  0
M  END
> <minimizedAffinity>
-8.99814

$$$$
OCNT-2312355


 23 25  0  0  0  0  0  0  0  0999 V2000
    3.6865   14.5207   22.1158 C   0  0  0  0  0  0  0  0  0  0  0  0
    3.5774   15.9170   21.6235 C   0  0  0  0  0  0  0  0  0  0  0  0
    4.5845   16.7758   21.8101 N   0  0  0  0  0  0  0  0  0  0  0  0
    4.1597   17.9469   21.2727 N   0  0  0  0  0  0  0  0  0  0  0  0
    2.8926   17.8194   20.7460 C   0  0  0  0  0  0  0  0  0  0  0  0
    2.4830   16.5172   20.9513 C   0  0  0  0  0  0  0  0  0  0  0  0
    4.9889   19.1047   21.2961 C   0  0  0  0  0  0  0  0  0  0  0  0
    4.6559   20.2066   20.4926 C   0  0  0  0  0  0  0  0  0  0  0  0
    5.4538   21.3528   20.5000 C   0  0  0  0  0  0  0  0  0  0  0  0
    6.5878   21.4082   21.3070 C   0  0  0  0  0  0  0  0  0  0  0  0
    6.9263   20.3185   22.1075 C   0  0  0  0  0  0  0  0  0  0  0  0
    6.1318   19.1676   22.1058 C   0  0  0  0  0  0  0  0  0  0  0  0
    1.1908   15.8908   20.5574 C   0  0  0  0  0  0  0  0  0  0  0  0
    1.0111   16.1138   19.1307 N   0  0  0  0  0  0  0  0  0  0  0  0
    1.4984   15.3917   18.6047 H   0  0  0  0  0  0  0  0  0  0  0  0
   -0.4052   16.1308   18.7344 C   0  0  0  0  0  0  0  0  0  0  0  0
   -0.7754   14.8983   17.9029 C   0  0  0  0  0  0  0  0  0  0  0  0
   -0.6826   17.3929   17.9544 C   0  0  0  0  0  0  0  0  0  0  0  0
    0.1762   18.3777   17.5030 C   0  0  0  0  0  0  0  0  0  0  0  0
   -0.6140   19.2893   16.8625 N   0  0  0  0  0  0  0  0  0  0  0  0
   -1.8998   18.8377   16.9281 C   0  0  0  0  0  0  0  0  0  0  0  0
   -1.9766   17.6986   17.5752 N   0  0  0  0  0  0  0  0  0  0  0  0
   -0.3078   20.1453   16.4218 H   0  0  0  0  0  0  0  0  0  0  0  0
  1  2  1  0  0  0
  2  3  2  0  0  0
  3  4  1  0  0  0
  4  7  1  0  0  0
  7  8  2  0  0  0
  8  9  1  0  0  0
  9 10  2  0  0  0
 10 11  1  0  0  0
 11 12  2  0  0  0
  4  5  1  0  0  0
  5  6  2  0  0  0
  6 13  1  0  0  0
 13 14  1  0  0  0
 14 16  1  0  0  0
 16 17  1  0  0  0
 16 18  1  0  0  0
 18 19  2  0  0  0
 19 20  1  0  0  0
 20 21  1  0  0  0
 21 22  2  0  0  0
  6  2  1  0  0  0
 22 18  1  0  0  0
 12  7  1  0  0  0
 14 15  1  0  0  0
 20 23  1  0  0  0
M  END
> <minimizedAffinity>
-9.37440

$$$$
OCNT-2312358


 31 34  0  0  0  0  0  0  0  0999 V2000
    0.4846   19.8924   16.6046 O   0  0  0  0  0  0  0  0  0  0  0  0
    0.7933   19.3469   17.6673 C   0  0  0  0  0  0  0  0  0  0  0  0
    0.2822   18.0964   17.9873 N   0  0  0  0  0  0  0  0  0  0  0  0
   -0.6047   17.4008   17.0752 C   0  0  0  0  0  0  0  0  0  0  0  0
   -0.6702   15.9784   17.6146 C   0  0  0  0  0  0  0  0  0  0  0  0
   -0.5735   16.1863   19.1295 C   0  0  0  0  0  0  0  0  0  0  0  0
   -1.8618   16.6096   19.6074 O   0  0  0  0  0  0  0  0  0  0  0  0
    0.4304   17.3581   19.2359 C   0  0  0  0  0  0  0  0  0  0  0  0
   -1.7451   16.9889   20.4955 H   0  0  0  0  0  0  0  0  0  0  0  0
    1.7206   20.0263   18.6029 C   0  0  0  0  0  0  0  0  0  0  0  0
    1.4790   21.1903   19.2358 N   0  0  0  0  0  0  0  0  0  0  0  0
    2.5789   21.3968   19.9791 N   0  0  0  0  0  0  0  0  0  0  0  0
    3.5404   20.4277   19.8731 C   0  0  0  0  0  0  0  0  0  0  0  0
    2.9991   19.5211   18.9835 C   0  0  0  0  0  0  0  0  0  0  0  0
    2.6381   22.2281   20.5604 H   0  0  0  0  0  0  0  0  0  0  0  0
    4.8135   20.4705   20.6056 C   0  0  0  0  0  0  0  0  0  0  0  0
    5.1624   19.4086   21.4557 C   0  0  0  0  0  0  0  0  0  0  0  0
    6.3657   19.4162   22.1681 C   0  0  0  0  0  0  0  0  0  0  0  0
    7.2448   20.4877   22.0437 C   0  0  0  0  0  0  0  0  0  0  0  0
    6.9241   21.5546   21.2072 C   0  0  0  0  0  0  0  0  0  0  0  0
    5.7195   21.5441   20.4961 C   0  0  0  0  0  0  0  0  0  0  0  0
    5.4276   22.6097   19.6776 O   0  0  0  0  0  0  0  0  0  0  0  0
    6.1614   23.2465   19.7357 H   0  0  0  0  0  0  0  0  0  0  0  0
   -0.0962   14.9549   19.9212 C   0  0  0  0  0  0  0  0  0  0  0  0
    1.2388   15.1182   20.6182 C   0  0  0  0  0  0  0  0  0  0  0  0
    1.8074   14.0570   21.3393 C   0  0  0  0  0  0  0  0  0  0  0  0
    3.0381   14.2142   21.9786 C   0  0  0  0  0  0  0  0  0  0  0  0
    3.7006   15.4321   21.8999 C   0  0  0  0  0  0  0  0  0  0  0  0
    4.8814   15.5828   22.5140 F   0  0  0  0  0  0  0  0  0  0  0  0
    3.1562   16.4968   21.1930 C   0  0  0  0  0  0  0  0  0  0  0  0
    1.9259   16.3413   20.5523 C   0  0  0  0  0  0  0  0  0  0  0  0
  1  2  2  0  0  0
  2 10  1  0  0  0
 10 11  2  0  0  0
 11 12  1  0  0  0
 12 13  1  0  0  0
 13 16  1  0  0  0
 16 17  2  0  0  0
 17 18  1  0  0  0
 18 19  2  0  0  0
 19 20  1  0  0  0
 20 21  2  0  0  0
 21 22  1  0  0  0
 13 14  2  0  0  0
  2  3  1  0  0  0
  3  4  1  0  0  0
  4  5  1  0  0  0
  5  6  1  0  0  0
  6  7  1  0  0  0
  6 24  1  0  0  0
 24 25  1  0  0  0
 25 26  1  0  0  0
 26 27  2  0  0  0
 27 28  1  0  0  0
 28 29  1  0  0  0
 28 30  2  0  0  0
 30 31  1  0  0  0
  6  8  1  0  0  0
 14 10  1  0  0  0
  8  3  1  0  0  0
 21 16  1  0  0  0
 31 25  2  0  0  0
 12 15  1  0  0  0
 22 23  1  0  0  0
  7  9  1  0  0  0
M  END
> <minimizedAffinity>
-8.27786

$$$$
OCNT-2312363


 24 26  0  0  0  0  0  0  0  0999 V2000
    4.6795   17.2162   21.5760 C   0  0  0  0  0  0  0  0  0  0  0  0
    5.3008   16.6632   20.6730 O   0  0  0  0  0  0  0  0  0  0  0  0
    3.3356   17.0301   21.8571 N   0  0  0  0  0  0  0  0  0  0  0  0
    2.9485   17.6246   22.5794 H   0  0  0  0  0  0  0  0  0  0  0  0
    2.4522   16.1014   21.2490 C   0  0  0  0  0  0  0  0  0  0  0  0
    2.4253   14.7567   21.6281 C   0  0  0  0  0  0  0  0  0  0  0  0
    1.4897   13.8552   21.2321 N   0  0  0  0  0  0  0  0  0  0  0  0
    0.5128   14.3033   20.4253 C   0  0  0  0  0  0  0  0  0  0  0  0
    0.4482   15.6027   19.9631 C   0  0  0  0  0  0  0  0  0  0  0  0
    1.4547   16.5081   20.3419 C   0  0  0  0  0  0  0  0  0  0  0  0
    1.4283   17.7866   19.7185 N   0  0  0  0  0  0  0  0  0  0  0  0
    0.3439   18.6076   19.4808 C   0  0  0  0  0  0  0  0  0  0  0  0
    0.8103   19.7265   18.8337 C   0  0  0  0  0  0  0  0  0  0  0  0
    2.1965   19.5378   18.7680 C   0  0  0  0  0  0  0  0  0  0  0  0
    2.5821   18.3898   19.3251 N   0  0  0  0  0  0  0  0  0  0  0  0
    4.5387   18.3534   23.7899 C   0  0  0  0  0  0  0  0  0  0  0  0
    5.3876   18.1957   22.5252 C   0  0  0  0  0  0  0  0  0  0  0  0
    5.7794   19.4920   21.8221 C   0  0  0  0  0  0  0  0  0  0  0  0
    7.0858   20.0063   21.8258 C   0  0  0  0  0  0  0  0  0  0  0  0
    7.3818   21.2131   21.1850 C   0  0  0  0  0  0  0  0  0  0  0  0
    6.3787   21.9247   20.5299 C   0  0  0  0  0  0  0  0  0  0  0  0
    5.0808   21.4246   20.5133 C   0  0  0  0  0  0  0  0  0  0  0  0
    3.8385   22.3012   19.7094 Cl  0  0  0  0  0  0  0  0  0  0  0  0
    4.7792   20.2201   21.1500 C   0  0  0  0  0  0  0  0  0  0  0  0
 16 17  1  0  0  0
 17  1  1  0  0  0
  1  2  2  0  0  0
  1  3  1  0  0  0
  3  5  1  0  0  0
  5  6  2  0  0  0
  6  7  1  0  0  0
  7  8  2  0  0  0
  8  9  1  0  0  0
  9 10  2  0  0  0
 10 11  1  0  0  0
 11 12  1  0  0  0
 12 13  2  0  0  0
 13 14  1  0  0  0
 14 15  2  0  0  0
 17 18  1  0  0  0
 18 19  2  0  0  0
 19 20  1  0  0  0
 20 21  2  0  0  0
 21 22  1  0  0  0
 22 23  1  0  0  0
 22 24  2  0  0  0
 10  5  1  0  0  0
 15 11  1  0  0  0
 24 18  1  0  0  0
  3  4  1  0  0  0
M  END
> <minimizedAffinity>
-10.12548

$$$$
OCNT-2312364


 27 29  0  0  0  0  0  0  0  0999 V2000
    3.6171   19.7376   20.2488 C   0  0  0  0  0  0  0  0  0  0  0  0
    4.6293   20.6411   20.3443 N   0  0  0  0  0  0  0  0  0  0  0  0
    5.7736   20.3311   21.0261 C   0  0  0  0  0  0  0  0  0  0  0  0
    6.0221   19.1502   21.6547 N   0  0  0  0  0  0  0  0  0  0  0  0
    4.9940   18.3008   21.5425 C   0  0  0  0  0  0  0  0  0  0  0  0
    3.7935   18.4978   20.8870 C   0  0  0  0  0  0  0  0  0  0  0  0
    2.9835   17.3863   21.0138 N   0  0  0  0  0  0  0  0  0  0  0  0
    3.6911   16.5307   21.7205 C   0  0  0  0  0  0  0  0  0  0  0  0
    4.9144   17.0404   22.0612 N   0  0  0  0  0  0  0  0  0  0  0  0
    5.6350   16.5820   22.5984 H   0  0  0  0  0  0  0  0  0  0  0  0
    6.8703   21.4047   21.0670 C   0  0  0  0  0  0  0  0  0  0  0  0
    6.6726   22.4262   20.1785 F   0  0  0  0  0  0  0  0  0  0  0  0
    8.1142   20.9149   20.7718 F   0  0  0  0  0  0  0  0  0  0  0  0
    6.9906   22.0032   22.2892 F   0  0  0  0  0  0  0  0  0  0  0  0
    2.4538   20.0443   19.5441 N   0  0  0  0  0  0  0  0  0  0  0  0
    2.5156   20.9855   19.1526 H   0  0  0  0  0  0  0  0  0  0  0  0
    1.9699   19.0418   18.5927 C   0  0  0  0  0  0  0  0  0  0  0  0
   -0.0264   19.2555   19.9765 O   0  0  0  0  0  0  0  0  0  0  0  0
    0.4413   18.8344   18.6864 C   0  0  0  0  0  0  0  0  0  0  0  0
   -0.9400   18.9317   20.0598 H   0  0  0  0  0  0  0  0  0  0  0  0
    0.0544   17.3878   18.4488 C   0  0  0  0  0  0  0  0  0  0  0  0
   -0.5313   17.0107   17.2301 C   0  0  0  0  0  0  0  0  0  0  0  0
   -0.8775   15.6783   16.9915 C   0  0  0  0  0  0  0  0  0  0  0  0
   -0.6357   14.7137   17.9668 C   0  0  0  0  0  0  0  0  0  0  0  0
   -1.0631   13.0735   17.6720 Cl  0  0  0  0  0  0  0  0  0  0  0  0
   -0.0470   15.0687   19.1782 C   0  0  0  0  0  0  0  0  0  0  0  0
    0.3000   16.4004   19.4172 C   0  0  0  0  0  0  0  0  0  0  0  0
 18 19  1  0  0  0
 19 17  1  0  0  0
 17 15  1  0  0  0
 15  1  1  0  0  0
  1  2  1  0  0  0
  2  3  2  0  0  0
  3 11  1  0  0  0
 11 12  1  0  0  0
 11 13  1  0  0  0
 11 14  1  0  0  0
  3  4  1  0  0  0
  4  5  2  0  0  0
  5  6  1  0  0  0
  6  7  1  0  0  0
  7  8  2  0  0  0
  8  9  1  0  0  0
 19 21  1  0  0  0
 21 22  1  0  0  0
 22 23  2  0  0  0
 23 24  1  0  0  0
 24 25  1  0  0  0
 24 26  2  0  0  0
 26 27  1  0  0  0
  6  1  2  0  0  0
 27 21  2  0  0  0
  9  5  1  0  0  0
 18 20  1  0  0  0
 15 16  1  0  0  0
  9 10  1  0  0  0
M  END
> <minimizedAffinity>
-9.96927

$$$$
OCNT-2312373


 26 29  0  0  0  0  0  0  0  0999 V2000
    4.8961   17.4340   21.9960 C   0  0  0  0  0  0  0  0  0  0  0  0
    5.4271   16.5068   21.1851 N   0  0  0  0  0  0  0  0  0  0  0  0
    4.4383   15.5273   21.1186 O   0  0  0  0  0  0  0  0  0  0  0  0
    3.4202   15.9471   21.9249 C   0  0  0  0  0  0  0  0  0  0  0  0
    3.6587   17.1031   22.5047 N   0  0  0  0  0  0  0  0  0  0  0  0
    5.6151   18.6700   22.3880 C   0  0  0  0  0  0  0  0  0  0  0  0
    3.6637   20.3892   19.7785 C   0  0  0  0  0  0  0  0  0  0  0  0
    4.1744   21.6750   19.7398 C   0  0  0  0  0  0  0  0  0  0  0  0
    5.2054   21.9999   20.6119 C   0  0  0  0  0  0  0  0  0  0  0  0
    5.6853   21.0310   21.4880 C   0  0  0  0  0  0  0  0  0  0  0  0
    5.1143   19.7566   21.4704 C   0  0  0  0  0  0  0  0  0  0  0  0
    4.1136   19.4275   20.6138 N   0  0  0  0  0  0  0  0  0  0  0  0
    1.3498   20.2206   19.4839 C   0  0  0  0  0  0  0  0  0  0  0  0
    2.6412   20.1119   18.8930 O   0  0  0  0  0  0  0  0  0  0  0  0
    2.2481   15.0464   22.0377 C   0  0  0  0  0  0  0  0  0  0  0  0
    1.3027   15.1555   20.8898 C   0  0  0  0  0  0  0  0  0  0  0  0
    1.1709   16.3100   20.2195 N   0  0  0  0  0  0  0  0  0  0  0  0
    0.2435   16.0030   19.2678 N   0  0  0  0  0  0  0  0  0  0  0  0
   -0.2061   14.7190   19.2799 N   0  0  0  0  0  0  0  0  0  0  0  0
    0.4651   14.1899   20.3028 C   0  0  0  0  0  0  0  0  0  0  0  0
   -0.2198   16.9595   18.3269 C   0  0  0  0  0  0  0  0  0  0  0  0
   -1.5649   17.3566   18.3312 C   0  0  0  0  0  0  0  0  0  0  0  0
   -2.0169   18.2962   17.4025 C   0  0  0  0  0  0  0  0  0  0  0  0
   -1.1325   18.8421   16.4716 C   0  0  0  0  0  0  0  0  0  0  0  0
    0.2067   18.4512   16.4653 C   0  0  0  0  0  0  0  0  0  0  0  0
    0.6663   17.5103   17.3896 C   0  0  0  0  0  0  0  0  0  0  0  0
 13 14  1  0  0  0
 14  7  1  0  0  0
  7  8  1  0  0  0
  8  9  2  0  0  0
  9 10  1  0  0  0
 10 11  2  0  0  0
 11  6  1  0  0  0
  6  1  1  0  0  0
  1  2  2  0  0  0
  2  3  1  0  0  0
  3  4  1  0  0  0
  4 15  1  0  0  0
 15 16  1  0  0  0
 16 17  2  0  0  0
 17 18  1  0  0  0
 18 21  1  0  0  0
 21 22  2  0  0  0
 22 23  1  0  0  0
 23 24  2  0  0  0
 24 25  1  0  0  0
 25 26  2  0  0  0
 18 19  1  0  0  0
 19 20  2  0  0  0
  4  5  2  0  0  0
 11 12  1  0  0  0
 12  7  2  0  0  0
  5  1  1  0  0  0
 20 16  1  0  0  0
 26 21  1  0  0  0
M  END
> <minimizedAffinity>
-9.09309

$$$$
OCNT-2312376


 25 27  0  0  0  0  0  0  0  0999 V2000
    4.0755   15.0476   21.7710 C   0  0  0  0  0  0  0  0  0  0  0  0
    4.4724   17.4574   22.1394 C   0  0  0  0  0  0  0  0  0  0  0  0
    3.7675   17.4864   23.1398 O   0  0  0  0  0  0  0  0  0  0  0  0
    4.6636   16.3199   21.3803 N   0  0  0  0  0  0  0  0  0  0  0  0
    5.3776   16.3000   20.6626 H   0  0  0  0  0  0  0  0  0  0  0  0
    7.3060   22.1008   20.4806 C   0  0  0  0  0  0  0  0  0  0  0  0
    6.5692   20.8663   20.8953 C   0  0  0  0  0  0  0  0  0  0  0  0
    7.1037   20.1154   21.8747 N   0  0  0  0  0  0  0  0  0  0  0  0
    6.3994   19.0218   22.2366 C   0  0  0  0  0  0  0  0  0  0  0  0
    5.1837   18.6678   21.6866 C   0  0  0  0  0  0  0  0  0  0  0  0
    4.7107   19.4990   20.6845 C   0  0  0  0  0  0  0  0  0  0  0  0
    3.4141   19.2487   19.9721 C   0  0  0  0  0  0  0  0  0  0  0  0
    5.3942   20.6052   20.2897 N   0  0  0  0  0  0  0  0  0  0  0  0
    2.6475   15.1944   22.2977 C   0  0  0  0  0  0  0  0  0  0  0  0
    1.6447   15.1433   21.1934 C   0  0  0  0  0  0  0  0  0  0  0  0
    0.9082   14.0460   20.7986 C   0  0  0  0  0  0  0  0  0  0  0  0
   -0.1082   14.4637   19.4899 S   0  0  0  0  0  0  0  0  0  0  0  0
    0.4964   16.0801   19.5240 C   0  0  0  0  0  0  0  0  0  0  0  0
    1.4039   16.2943   20.4616 N   0  0  0  0  0  0  0  0  0  0  0  0
    0.0220   17.1205   18.5864 C   0  0  0  0  0  0  0  0  0  0  0  0
   -1.3289   17.1119   18.1942 C   0  0  0  0  0  0  0  0  0  0  0  0
   -1.8370   18.0696   17.3118 C   0  0  0  0  0  0  0  0  0  0  0  0
   -1.0009   19.0590   16.8042 C   0  0  0  0  0  0  0  0  0  0  0  0
    0.3393   19.0904   17.1791 C   0  0  0  0  0  0  0  0  0  0  0  0
    0.8466   18.1305   18.0626 C   0  0  0  0  0  0  0  0  0  0  0  0
  6  7  1  0  0  0
  7  8  2  0  0  0
  8  9  1  0  0  0
  9 10  2  0  0  0
 10  2  1  0  0  0
  2  3  2  0  0  0
  2  4  1  0  0  0
  4  1  1  0  0  0
  1 14  1  0  0  0
 14 15  1  0  0  0
 15 16  2  0  0  0
 16 17  1  0  0  0
 17 18  1  0  0  0
 18 20  1  0  0  0
 20 21  2  0  0  0
 21 22  1  0  0  0
 22 23  2  0  0  0
 23 24  1  0  0  0
 24 25  2  0  0  0
 18 19  2  0  0  0
 10 11  1  0  0  0
 11 12  1  0  0  0
 11 13  2  0  0  0
 13  7  1  0  0  0
 19 15  1  0  0  0
 25 20  1  0  0  0
  4  5  1  0  0  0
M  END
> <minimizedAffinity>
-9.19625

$$$$
OCNT-2312382


 26 29  0  0  0  0  0  0  0  0999 V2000
    1.0219   20.7710   19.4928 O   0  0  0  0  0  0  0  0  0  0  0  0
    2.0125   20.0444   19.4687 C   0  0  0  0  0  0  0  0  0  0  0  0
    2.0386   18.7351   19.0336 N   0  0  0  0  0  0  0  0  0  0  0  0
    2.9411   18.2542   19.0717 H   0  0  0  0  0  0  0  0  0  0  0  0
    3.3440   20.5265   19.8802 C   0  0  0  0  0  0  0  0  0  0  0  0
    3.7726   21.7743   19.5852 N   0  0  0  0  0  0  0  0  0  0  0  0
    4.9830   21.8414   20.1584 N   0  0  0  0  0  0  0  0  0  0  0  0
    5.3568   20.7170   20.8388 C   0  0  0  0  0  0  0  0  0  0  0  0
    6.5025   20.4182   21.5857 C   0  0  0  0  0  0  0  0  0  0  0  0
    6.5671   19.1504   22.1745 C   0  0  0  0  0  0  0  0  0  0  0  0
    5.5351   18.2286   22.0134 C   0  0  0  0  0  0  0  0  0  0  0  0
    4.4041   18.5465   21.2518 C   0  0  0  0  0  0  0  0  0  0  0  0
    4.3110   19.8216   20.6604 C   0  0  0  0  0  0  0  0  0  0  0  0
    5.4995   22.7090   20.0800 H   0  0  0  0  0  0  0  0  0  0  0  0
    1.0004   18.0429   18.4375 C   0  0  0  0  0  0  0  0  0  0  0  0
    0.2444   18.4178   17.3561 C   0  0  0  0  0  0  0  0  0  0  0  0
   -0.5937   17.3796   17.1045 N   0  0  0  0  0  0  0  0  0  0  0  0
   -0.4769   16.3613   17.9711 N   0  0  0  0  0  0  0  0  0  0  0  0
    0.5037   16.7508   18.8124 C   0  0  0  0  0  0  0  0  0  0  0  0
   -1.2700   17.2922   16.3511 H   0  0  0  0  0  0  0  0  0  0  0  0
    0.9609   15.9110   19.9325 C   0  0  0  0  0  0  0  0  0  0  0  0
    0.2763   14.7522   20.2923 C   0  0  0  0  0  0  0  0  0  0  0  0
    0.7310   14.0064   21.3789 C   0  0  0  0  0  0  0  0  0  0  0  0
    1.8515   14.4391   22.0785 C   0  0  0  0  0  0  0  0  0  0  0  0
    2.4792   15.6018   21.6552 C   0  0  0  0  0  0  0  0  0  0  0  0
    2.0615   16.3464   20.6078 N   0  0  0  0  0  0  0  0  0  0  0  0
  1  2  2  0  0  0
  2  3  1  0  0  0
  3 15  1  0  0  0
 15 16  2  0  0  0
 16 17  1  0  0  0
 17 18  1  0  0  0
 18 19  2  0  0  0
 19 21  1  0  0  0
 21 22  2  0  0  0
 22 23  1  0  0  0
 23 24  2  0  0  0
 24 25  1  0  0  0
 25 26  2  0  0  0
  2  5  1  0  0  0
  5  6  2  0  0  0
  6  7  1  0  0  0
  7  8  1  0  0  0
  8  9  2  0  0  0
  9 10  1  0  0  0
 10 11  2  0  0  0
 11 12  1  0  0  0
 12 13  2  0  0  0
 19 15  1  0  0  0
 26 21  1  0  0  0
 13  5  1  0  0  0
 13  8  1  0  0  0
  3  4  1  0  0  0
 17 20  1  0  0  0
  7 14  1  0  0  0
M  END
> <minimizedAffinity>
-11.25598

$$$$
OCNT-2312387


 24 26  0  0  0  0  0  0  0  0999 V2000
    1.8709   16.8262   20.3047 C   0  0  0  0  0  0  0  0  0  0  0  0
    2.1136   16.2766   21.3695 O   0  0  0  0  0  0  0  0  0  0  0  0
    2.4570   17.9485   19.7713 N   0  0  0  0  0  0  0  0  0  0  0  0
    2.1070   18.3428   18.9096 H   0  0  0  0  0  0  0  0  0  0  0  0
    3.4785   18.6849   20.3115 C   0  0  0  0  0  0  0  0  0  0  0  0
    3.7462   19.8918   19.8612 N   0  0  0  0  0  0  0  0  0  0  0  0
    4.8190   20.4069   20.5574 C   0  0  0  0  0  0  0  0  0  0  0  0
    5.3378   19.5802   21.5312 C   0  0  0  0  0  0  0  0  0  0  0  0
    6.5030   19.9014   22.4038 C   0  0  0  0  0  0  0  0  0  0  0  0
    6.7691   21.4305   22.3815 C   0  0  0  0  0  0  0  0  0  0  0  0
    8.0668   21.7367   22.9905 N   0  0  0  0  0  0  0  0  0  0  0  0
    6.7211   21.9897   20.9407 C   0  0  0  0  0  0  0  0  0  0  0  0
    5.3422   21.7762   20.2889 C   0  0  0  0  0  0  0  0  0  0  0  0
    4.4788   18.1145   21.5718 S   0  0  0  0  0  0  0  0  0  0  0  0
    8.2072   22.7465   23.0167 H   0  0  0  0  0  0  0  0  0  0  0  0
    8.0762   21.4227   23.9609 H   0  0  0  0  0  0  0  0  0  0  0  0
    0.9810   14.0061   20.6278 C   0  0  0  0  0  0  0  0  0  0  0  0
    0.3756   14.9213   19.5991 C   0  0  0  0  0  0  0  0  0  0  0  0
    0.7978   16.2563   19.4445 C   0  0  0  0  0  0  0  0  0  0  0  0
    0.2275   17.0759   18.4583 C   0  0  0  0  0  0  0  0  0  0  0  0
   -0.7690   16.5649   17.6311 C   0  0  0  0  0  0  0  0  0  0  0  0
   -1.5396   17.6665   16.3024 Br  0  0  0  0  0  0  0  0  0  0  0  0
   -1.1978   15.2475   17.7697 C   0  0  0  0  0  0  0  0  0  0  0  0
   -0.6237   14.4284   18.7449 C   0  0  0  0  0  0  0  0  0  0  0  0
 17 18  1  0  0  0
 18 19  2  0  0  0
 19  1  1  0  0  0
  1  2  2  0  0  0
  1  3  1  0  0  0
  3  5  1  0  0  0
  5  6  2  0  0  0
  6  7  1  0  0  0
  7  8  2  0  0  0
  8  9  1  0  0  0
  9 10  1  0  0  0
 10 11  1  0  0  0
 10 12  1  0  0  0
 12 13  1  0  0  0
  8 14  1  0  0  0
 19 20  1  0  0  0
 20 21  2  0  0  0
 21 22  1  0  0  0
 21 23  1  0  0  0
 23 24  2  0  0  0
 24 18  1  0  0  0
 14  5  1  0  0  0
 13  7  1  0  0  0
  3  4  1  0  0  0
 11 15  1  0  0  0
 11 16  1  0  0  0
M  END
> <minimizedAffinity>
-7.24661

$$$$
OCNT-2312392


 23 25  0  0  0  0  0  0  0  0999 V2000
    4.7082   17.8601   22.9461 O   0  0  0  0  0  0  0  0  0  0  0  0
    4.7255   18.5427   21.9275 C   0  0  0  0  0  0  0  0  0  0  0  0
    5.6113   19.5948   21.8412 N   0  0  0  0  0  0  0  0  0  0  0  0
    5.7166   20.4658   20.7703 C   0  0  0  0  0  0  0  0  0  0  0  0
    4.8989   20.2788   19.7214 C   0  0  0  0  0  0  0  0  0  0  0  0
    3.9467   19.1930   19.7184 C   0  0  0  0  0  0  0  0  0  0  0  0
    3.8227   18.3227   20.7433 C   0  0  0  0  0  0  0  0  0  0  0  0
    6.2080   19.7167   22.6546 H   0  0  0  0  0  0  0  0  0  0  0  0
    2.8868   17.2364   20.7402 C   0  0  0  0  0  0  0  0  0  0  0  0
    2.9024   16.1299   21.4983 N   0  0  0  0  0  0  0  0  0  0  0  0
    1.7879   15.4126   21.0802 O   0  0  0  0  0  0  0  0  0  0  0  0
    1.2030   16.1477   20.0963 C   0  0  0  0  0  0  0  0  0  0  0  0
    1.8356   17.2680   19.8384 N   0  0  0  0  0  0  0  0  0  0  0  0
   -0.0121   15.5805   19.4662 C   0  0  0  0  0  0  0  0  0  0  0  0
   -0.7839   16.6347   18.6804 C   0  0  0  0  0  0  0  0  0  0  0  0
   -0.3652   16.7363   17.2276 C   0  0  0  0  0  0  0  0  0  0  0  0
   -0.8949   18.1026   16.8481 C   0  0  0  0  0  0  0  0  0  0  0  0
   -0.8255   18.9124   18.0294 O   0  0  0  0  0  0  0  0  0  0  0  0
   -0.5572   18.0623   19.1546 C   0  0  0  0  0  0  0  0  0  0  0  0
    6.7404   21.5771   20.8457 C   0  0  0  0  0  0  0  0  0  0  0  0
    7.9336   21.1855   20.3306 F   0  0  0  0  0  0  0  0  0  0  0  0
    6.9734   21.9962   22.1151 F   0  0  0  0  0  0  0  0  0  0  0  0
    6.3447   22.6631   20.1344 F   0  0  0  0  0  0  0  0  0  0  0  0
  1  2  2  0  0  0
  2  3  1  0  0  0
  3  4  1  0  0  0
  4 20  1  0  0  0
 20 21  1  0  0  0
 20 22  1  0  0  0
 20 23  1  0  0  0
  4  5  2  0  0  0
  5  6  1  0  0  0
  6  7  2  0  0  0
  7  9  1  0  0  0
  9 10  2  0  0  0
 10 11  1  0  0  0
 11 12  1  0  0  0
 12 14  1  0  0  0
 14 15  1  0  0  0
 15 16  1  0  0  0
 16 17  1  0  0  0
 17 18  1  0  0  0
 18 19  1  0  0  0
 12 13  2  0  0  0
  7  2  1  0  0  0
 13  9  1  0  0  0
 19 15  1  0  0  0
  3  8  1  0  0  0
M  END
> <minimizedAffinity>
-10.95094

$$$$
OCNT-2312404


 29 32  0  0  0  0  0  0  0  0999 V2000
    1.4763   15.6053   22.0900 C   0  0  0  0  0  0  0  0  0  0  0  0
    2.4865   15.7798   23.0438 C   0  0  0  0  0  0  0  0  0  0  0  0
    3.4974   16.7341   22.8593 C   0  0  0  0  0  0  0  0  0  0  0  0
    3.5208   17.5369   21.7129 C   0  0  0  0  0  0  0  0  0  0  0  0
    2.5024   17.3598   20.7669 C   0  0  0  0  0  0  0  0  0  0  0  0
    1.4928   16.4047   20.9497 C   0  0  0  0  0  0  0  0  0  0  0  0
    4.5550   18.5498   21.4702 C   0  0  0  0  0  0  0  0  0  0  0  0
    4.3940   19.6663   20.7820 N   0  0  0  0  0  0  0  0  0  0  0  0
    5.6070   20.3199   20.7939 C   0  0  0  0  0  0  0  0  0  0  0  0
    6.0248   21.5386   20.2349 C   0  0  0  0  0  0  0  0  0  0  0  0
    4.8583   22.4303   19.3653 Cl  0  0  0  0  0  0  0  0  0  0  0  0
    7.3387   21.9811   20.3952 C   0  0  0  0  0  0  0  0  0  0  0  0
    8.2483   21.2059   21.1171 C   0  0  0  0  0  0  0  0  0  0  0  0
    7.8702   19.9834   21.6900 C   0  0  0  0  0  0  0  0  0  0  0  0
    6.5438   19.5779   21.5066 C   0  0  0  0  0  0  0  0  0  0  0  0
    5.8545   18.4659   21.9182 N   0  0  0  0  0  0  0  0  0  0  0  0
    6.2434   17.7039   22.4502 H   0  0  0  0  0  0  0  0  0  0  0  0
   -0.1680   15.1707   24.5200 O   0  0  0  0  0  0  0  0  0  0  0  0
   -0.2424   14.4659   23.5168 C   0  0  0  0  0  0  0  0  0  0  0  0
    0.5006   14.6216   22.3593 N   0  0  0  0  0  0  0  0  0  0  0  0
    0.3361   13.9631   21.6084 H   0  0  0  0  0  0  0  0  0  0  0  0
   -1.2141   13.2886   23.4991 C   0  0  0  0  0  0  0  0  0  0  0  0
   -0.4815   11.9694   23.2044 C   0  0  0  0  0  0  0  0  0  0  0  0
   -1.2645   10.7294   23.3084 N   0  0  0  0  0  0  0  0  0  0  0  0
   -2.6487   10.8939   22.8415 C   0  0  0  0  0  0  0  0  0  0  0  0
   -3.5517   11.6367   23.8510 C   0  0  0  0  0  0  0  0  0  0  0  0
   -2.8118   12.0871   24.9945 O   0  0  0  0  0  0  0  0  0  0  0  0
   -2.0699   13.2880   24.7684 C   0  0  0  0  0  0  0  0  0  0  0  0
   -1.3318   10.4823   24.3010 H   0  0  0  0  0  0  0  0  0  0  0  0
 18 19  2  0  0  0
 19 20  1  0  0  0
 20  1  1  0  0  0
  1  2  1  0  0  0
  2  3  2  0  0  0
  3  4  1  0  0  0
  4  7  1  0  0  0
  7  8  2  0  0  0
  8  9  1  0  0  0
  9 10  2  0  0  0
 10 11  1  0  0  0
 10 12  1  0  0  0
 12 13  2  0  0  0
 13 14  1  0  0  0
 14 15  2  0  0  0
 15 16  1  0  0  0
  4  5  2  0  0  0
  5  6  1  0  0  0
 19 22  1  0  0  0
 22 23  1  0  0  0
 23 24  1  0  0  0
 24 25  1  0  0  0
 25 26  1  0  0  0
 26 27  1  0  0  0
 27 28  1  0  0  0
  6  1  2  0  0  0
 28 22  1  0  0  0
 16  7  1  0  0  0
 15  9  1  0  0  0
 20 21  1  0  0  0
 16 17  1  0  0  0
 24 29  1  0  0  0
M  END
> <minimizedAffinity>
7.48466

$$$$
